20
Properties=species:S:1:pos:R:3 gdb_79179=T pbc="F F F"
C       -0.06280000       1.57610000      -0.03410000
C        0.02690000       0.04830000      -0.00200000
C        0.81770000      -0.51190000      -1.18400000
C        2.01200000      -1.25380000      -0.74240000
C        1.55140000      -1.71640000       0.66210000
C        0.58330000      -2.65310000      -0.09590000
N        0.87670000      -1.98870000      -1.41270000
C        0.79340000      -0.52440000       1.24030000
O        1.76650000       0.36550000       1.76550000
H        0.93280000       2.02840000      -0.05110000
H       -0.60320000       1.91200000      -0.92440000
H       -0.60350000       1.96480000       0.83710000
H       -0.99370000      -0.35420000      -0.00580000
H        0.82420000       0.03620000      -2.12080000
H        3.01190000      -1.20250000      -1.15510000
H        2.26770000      -2.16030000       1.35150000
H        0.94020000      -3.68370000      -0.14950000
H       -0.47200000      -2.65940000       0.20290000
H        0.09070000      -0.83750000       2.02840000
H        1.31370000       1.13430000       2.12540000
