18
Properties=species:S:1:pos:R:3 gdb_33464=T pbc="F F F"
N        0.17270000      -1.12230000      -0.13670000
C        0.11250000       0.03150000      -0.07190000
C        0.02720000       1.47010000       0.00090000
C        0.43820000       2.10880000       1.32370000
C        1.34670000       2.22270000       0.13920000
C       -1.09370000       2.10160000      -0.79800000
C       -1.28250000       1.72390000      -2.28680000
O       -2.68680000       1.47490000      -2.08030000
C       -2.53810000       1.56650000      -0.64980000
H       -0.12860000       2.98050000       1.63110000
H        0.72660000       1.44640000       2.13070000
H        2.25870000       1.63850000       0.13320000
H        1.41200000       3.17370000      -0.37750000
H       -1.04610000       3.18440000      -0.65740000
H       -1.10510000       2.51240000      -3.02620000
H       -0.74530000       0.81500000      -2.58910000
H       -2.60290000       0.58210000      -0.16720000
H       -3.27410000       2.24040000      -0.19830000
