15
Properties=species:S:1:pos:R:3 gdb_125747=T pbc="F F F"
C       -0.03060000       1.48130000       0.03810000
C       -0.06800000      -0.00990000       0.05290000
N       -0.25530000      -0.69380000      -1.04470000
O       -0.23340000      -2.04620000      -0.66690000
C       -0.03350000      -2.14590000       0.64780000
C        0.02250000      -3.50270000       1.24650000
C        0.08210000      -0.88780000       1.18010000
C        0.29960000      -0.54080000       2.53210000
N        0.47790000      -0.24750000       3.63860000
H        0.92870000       1.84760000       0.41690000
H       -0.17500000       1.84800000      -0.97920000
H       -0.81430000       1.89400000       0.68090000
H        0.83210000      -4.08790000       0.79920000
H        0.19020000      -3.43010000       2.32220000
H       -0.91350000      -4.04140000       1.06830000
