14
Properties=species:S:1:pos:R:3 gdb_74314=T pbc="F F F"
N       -0.06080000       1.38890000       0.52950000
C       -0.07180000       0.05990000       0.19970000
N       -1.10400000      -0.70440000       0.22010000
C       -0.63270000      -2.04380000      -0.10960000
C       -1.28040000      -2.55580000      -1.39970000
O       -1.52540000      -3.70880000      -1.61910000
C        0.90390000      -1.92970000      -0.29510000
O        1.72740000      -2.77470000      -0.51870000
N        1.13110000      -0.56410000      -0.13390000
H        0.58580000       1.97790000       0.02600000
H       -0.98890000       1.78030000       0.60880000
H       -0.84300000      -2.77570000       0.67720000
H       -1.50630000      -1.74500000      -2.12650000
H        2.05480000      -0.17120000      -0.04320000
