22
Properties=species:S:1:pos:R:3 gdb_103150=T pbc="F F F"
C       -0.24300000       1.49760000       0.10330000
C        0.10540000       0.00610000       0.03070000
C        0.78600000      -0.43280000      -1.27320000
C        2.10940000       0.29930000      -1.53900000
N        0.82760000      -1.92770000      -1.41570000
C        2.04930000      -2.67200000      -1.20720000
C        0.22630000      -1.91990000      -2.76030000
C       -0.10660000      -0.44060000      -2.53340000
O       -0.78440000       0.37340000      -3.08820000
H        0.65130000       2.12740000       0.13490000
H       -0.83850000       1.80130000      -0.76250000
H       -0.82320000       1.70900000       1.00650000
H        0.76190000      -0.27180000       0.86670000
H       -0.80280000      -0.59500000       0.14510000
H        2.80620000       0.15770000      -0.70560000
H        2.59530000      -0.05620000      -2.45270000
H        1.93320000       1.37140000      -1.65510000
H        2.42460000      -2.49910000      -0.19360000
H        1.84040000      -3.74320000      -1.30050000
H        2.85780000      -2.42680000      -1.91990000
H        0.94120000      -2.04810000      -3.59260000
H       -0.61130000      -2.61000000      -2.91220000
