21
Properties=species:S:1:pos:R:3 gdb_113987=T pbc="F F F"
O       -0.19300000       1.39020000      -0.71200000
C       -0.01680000       0.18470000       0.02280000
C       -1.35520000      -0.50130000       0.10290000
C       -1.83560000      -1.39030000      -1.01770000
C       -1.50600000      -1.98900000       0.33030000
C       -0.33680000      -2.93550000       0.50920000
C       -0.72890000      -4.39360000       0.18020000
C        0.37520000      -5.33030000       0.34730000
C        1.30590000      -6.07740000       0.49210000
H        0.64070000       1.86980000      -0.70000000
H        0.72230000      -0.46810000      -0.46570000
H        0.35610000       0.39540000       1.03850000
H       -2.11130000       0.12100000       0.57410000
H       -2.87160000      -1.32560000      -1.33080000
H       -1.13800000      -1.57580000      -1.82940000
H       -2.36700000      -2.25870000       0.93900000
H        0.50080000      -2.64890000      -0.13410000
H        0.03460000      -2.89510000       1.54010000
H       -1.56730000      -4.69780000       0.82060000
H       -1.10280000      -4.44180000      -0.85030000
H        2.11860000      -6.74890000       0.61670000
