15
Properties=species:S:1:pos:R:3 gdb_12747=T pbc="F F F"
C       -0.03690000       1.55960000       0.00930000
C        0.02320000       0.06250000       0.03410000
C       -0.87060000      -0.83900000       0.86590000
C        0.61440000      -0.94930000       0.99230000
O        1.14550000      -1.76730000      -0.06320000
C        0.69190000      -0.80480000      -1.04560000
C       -0.15630000      -1.38680000      -2.08930000
N       -0.83920000      -1.82300000      -2.91330000
H        0.92550000       1.99640000      -0.27890000
H       -0.79480000       1.91330000      -0.69900000
H       -0.30100000       1.95230000       0.99570000
H       -1.37240000      -0.32280000       1.67900000
H       -1.43470000      -1.65090000       0.41540000
H        1.20150000      -0.85810000       1.89790000
H        1.55040000      -0.30610000      -1.51140000
