21
Properties=species:S:1:pos:R:3 gdb_93169=T pbc="F F F"
O       -0.28110000       1.47870000       0.19690000
C        0.01900000       0.07900000       0.17240000
C       -1.24400000      -0.70010000       0.57990000
C       -2.36950000      -0.93140000      -0.39750000
C       -2.70900000      -0.29620000      -1.51970000
C       -2.03320000       0.88780000      -2.16060000
C       -0.82940000       0.50260000      -3.04000000
C        0.33650000      -0.19480000      -2.39050000
C        0.67690000      -0.38750000      -1.11200000
H        0.46600000       1.93350000      -0.20600000
H        0.74530000      -0.11710000       0.97710000
H       -0.90170000      -1.68730000       0.91700000
H       -1.63840000      -0.21090000       1.48280000
H       -3.00240000      -1.76870000      -0.10450000
H       -3.57550000      -0.68460000      -2.05310000
H       -2.75670000       1.40530000      -2.80040000
H       -1.70870000       1.59230000      -1.39430000
H       -1.17530000      -0.15100000      -3.85370000
H       -0.45220000       1.40310000      -3.54920000
H        1.02480000      -0.61850000      -3.12270000
H        1.58570000      -0.96260000      -0.94270000
