14
Properties=species:S:1:pos:R:3 gdb_128617=T pbc="F F F"
C       -0.04040000       1.40590000       0.05550000
O        0.02400000      -0.02660000      -0.03930000
C        0.63130000      -0.51890000      -1.10220000
N        1.15050000       0.20280000      -2.02550000
C        1.75610000      -0.47600000      -3.08300000
N        2.32400000       0.06460000      -4.09010000
C        1.71770000      -1.94160000      -2.99650000
N        1.18730000      -2.62100000      -2.05390000
O        0.59170000      -1.86240000      -1.01520000
H        0.96490000       1.83140000       0.08260000
H       -0.58250000       1.82000000      -0.79710000
H       -0.57080000       1.60420000       0.98600000
H        2.26720000       1.08230000      -4.00340000
H        2.17220000      -2.52800000      -3.78890000
