15
Properties=species:S:1:pos:R:3 gdb_127278=T pbc="F F F"
C       -0.24940000       1.37570000      -0.05960000
N        0.00160000      -0.05060000      -0.01260000
C        0.20460000      -0.88770000      -1.05890000
C        0.32530000      -2.14920000      -0.51200000
O        0.61050000      -3.29910000      -1.21300000
C       -0.26320000      -4.33740000      -1.09370000
O       -0.06590000      -5.39140000      -1.61070000
C        0.17790000      -1.97520000       0.87730000
N       -0.02850000      -0.69210000       1.16940000
H        0.32440000       1.82250000      -0.87420000
H       -1.31330000       1.58610000      -0.21020000
H        0.06830000       1.80490000       0.89060000
H        0.26140000      -0.54490000      -2.07880000
H       -1.14190000      -4.07260000      -0.47860000
H        0.22990000      -2.71560000       1.66120000
