23
Properties=species:S:1:pos:R:3 gdb_53224=T pbc="F F F"
C        0.78920000       1.47760000      -0.98410000
C        0.42410000       0.14690000      -0.51920000
C        0.12570000      -0.95730000      -0.13890000
C       -0.25250000      -2.27130000       0.34020000
C       -0.13440000      -2.57780000       1.86840000
C       -1.50190000      -3.32910000       1.80820000
C       -1.32000000      -4.84170000       1.65250000
C       -2.48880000      -3.01340000       2.92760000
C       -1.77120000      -2.62760000       0.43940000
H        1.57280000       1.43380000      -1.74900000
H       -0.07010000       1.99750000      -1.42270000
H        1.16510000       2.09890000      -0.16310000
H        0.27380000      -3.03980000      -0.23580000
H        0.74050000      -3.14880000       2.19070000
H       -0.19600000      -1.66020000       2.45890000
H       -0.93890000      -5.28780000       2.57840000
H       -2.27280000      -5.32840000       1.41390000
H       -0.61360000      -5.08630000       0.85190000
H       -2.62370000      -1.93310000       3.04450000
H       -3.47240000      -3.45370000       2.72440000
H       -2.14010000      -3.41320000       3.88740000
H       -2.37930000      -1.72670000       0.55270000
H       -2.18830000      -3.23790000      -0.36620000
