15
Properties=species:S:1:pos:R:3 gdb_28946=T pbc="F F F"
O        0.12290000       1.35100000       0.19020000
C        0.09180000       0.01180000      -0.01390000
C        0.10830000      -0.80810000      -1.11010000
N        0.06590000      -2.12770000      -0.69950000
C        0.02290000      -2.09400000       0.60560000
N        0.04500000      -0.80520000       1.08990000
C       -0.02940000      -0.37030000       2.47750000
C       -1.39480000      -0.15660000       2.95530000
C       -2.51350000       0.01500000       3.35590000
H        0.18230000       1.78970000      -0.66390000
H        0.15400000      -0.53320000      -2.15260000
H       -0.02100000      -2.94400000       1.27010000
H        0.46940000      -1.12660000       3.09270000
H        0.54840000       0.55420000       2.57320000
H       -3.50470000       0.16790000       3.70570000
