14
Properties=species:S:1:pos:R:3 gdb_28740=T pbc="F F F"
N        0.01510000       0.94680000       0.96940000
C       -0.18430000      -0.15870000       0.15810000
C       -0.93330000      -0.39110000      -0.94290000
N       -0.76750000      -1.70200000      -1.37600000
C        0.07150000      -2.19420000      -0.51620000
N        0.53730000      -3.49520000      -0.54980000
C        1.42210000      -4.12170000       0.30350000
O        1.96090000      -3.62580000       1.25930000
O        0.48650000      -1.36220000       0.44300000
H       -0.27360000       0.78730000       1.92950000
H        0.98040000       1.26070000       0.97600000
H       -1.58290000       0.30080000      -1.45390000
H        0.15670000      -4.03010000      -1.31700000
H        1.57640000      -5.17080000      -0.01480000
