19
Properties=species:S:1:pos:R:3 gdb_102126=T pbc="F F F"
O        0.06340000       1.41790000       0.20420000
C        0.06150000       0.01210000       0.01690000
C       -1.40070000      -0.45860000       0.01840000
C       -2.14190000       0.13300000      -1.16950000
O       -2.85860000      -0.50420000      -1.90190000
C       -1.52930000      -1.97500000       0.06450000
C       -1.16030000      -2.69780000       1.38100000
O       -2.46490000      -3.29650000       1.47340000
C       -2.93160000      -2.57140000       0.31370000
H        0.96480000       1.73930000       0.10880000
H        0.54270000      -0.26990000      -0.93340000
H        0.60580000      -0.50100000       0.82470000
H       -1.86000000      -0.01550000       0.91680000
H       -1.97350000       1.21820000      -1.32590000
H       -1.04630000      -2.41470000      -0.81190000
H       -0.36390000      -3.44940000       1.32220000
H       -0.95240000      -2.03060000       2.23080000
H       -3.70610000      -1.83860000       0.57370000
H       -3.32050000      -3.23600000      -0.46350000
