16
Properties=species:S:1:pos:R:3 gdb_19082=T pbc="F F F"
O       -0.08150000       1.35730000      -0.04790000
C        0.02630000      -0.04170000      -0.03820000
C       -0.43820000      -0.68460000       1.25730000
C       -1.32620000      -0.68430000       0.02360000
C       -1.33840000      -2.23280000       0.01210000
C       -0.02130000      -2.93250000       0.02030000
O        1.05180000      -2.61060000      -0.82200000
C       -0.44290000      -2.23350000       1.28240000
H        0.68350000       1.71200000       0.41690000
H        0.82820000      -0.45460000      -0.63780000
H       -0.55310000      -0.08630000       2.15180000
H       -2.21620000      -0.09580000      -0.15400000
H       -2.25560000      -2.78180000      -0.16530000
H       -0.16860000      -4.01190000       0.11770000
H        1.86430000      -2.82250000      -0.34890000
H       -0.58620000      -2.78510000       2.20480000
