23
Properties=species:S:1:pos:R:3 gdb_66181=T pbc="F F F"
C        0.21140000       1.41010000      -0.09090000
C       -0.06640000      -0.10390000       0.04060000
C        0.58500000      -0.90760000      -1.13250000
C        1.92170000      -1.47590000      -0.59230000
C        1.75060000      -1.37630000       0.90360000
C        0.68360000      -0.65630000       1.24170000
C       -1.57760000      -0.32490000       0.07800000
C       -2.19750000      -1.54060000       0.71450000
C       -2.39750000      -0.17670000       1.33420000
H        1.28300000       1.60560000      -0.20030000
H       -0.30230000       1.82490000      -0.96590000
H       -0.14310000       1.95260000       0.79170000
H       -0.07780000      -1.73460000      -1.40420000
H        0.71860000      -0.29180000      -2.02670000
H        2.10760000      -2.50100000      -0.93330000
H        2.78890000      -0.88640000      -0.92150000
H        2.45510000      -1.81260000       1.60410000
H        0.40090000      -0.41250000       2.26050000
H       -2.06740000       0.02400000      -0.82940000
H       -3.04010000      -2.01430000       0.22270000
H       -1.53440000      -2.22930000       1.22750000
H       -1.88530000       0.03190000       2.26740000
H       -3.37470000       0.28780000       1.25890000
