19
Properties=species:S:1:pos:R:3 gdb_68656=T pbc="F F F"
C       -0.03370000       1.40800000       0.08270000
C        0.11810000      -0.07840000       0.01600000
C        0.66880000      -0.97220000      -1.12950000
C        0.00700000      -1.87610000      -0.06200000
C       -0.33720000      -3.34030000      -0.12060000
C       -1.13760000      -3.79200000       1.08780000
O       -0.88180000      -4.76940000       1.74240000
C        0.71960000      -1.06400000       1.05120000
O       -1.12180000      -0.91070000       0.00630000
H        0.94960000       1.88870000       0.07990000
H       -0.60150000       1.77510000      -0.77740000
H       -0.55930000       1.69940000       0.99700000
H        0.12540000      -0.89990000      -2.07320000
H        1.75240000      -1.03440000      -1.26060000
H       -0.95370000      -3.51220000      -1.01430000
H        0.56570000      -3.95230000      -0.20120000
H       -2.00530000      -3.14150000       1.32880000
H        1.80790000      -1.13580000       1.12480000
H        0.22500000      -1.07150000       2.02400000
