18
Properties=species:S:1:pos:R:3 gdb_17884=T pbc="F F F"
O       -0.06910000       1.38990000       0.03880000
C        0.02900000      -0.01900000      -0.01100000
C       -1.39760000      -0.62080000      -0.10350000
C       -1.28620000      -0.43340000      -1.64720000
C        0.25140000      -0.60800000      -1.44610000
C        0.54980000      -2.08240000      -1.28650000
C       -0.22350000      -2.79660000      -0.46660000
C       -1.35900000      -2.11420000       0.26460000
H        0.80560000       1.75390000      -0.13250000
H        0.69110000      -0.40510000       0.77630000
H       -2.18270000      -0.08060000       0.42980000
H       -1.78920000      -1.15690000      -2.29260000
H       -1.54450000       0.58530000      -1.93740000
H        0.94110000      -0.08930000      -2.11570000
H        1.37880000      -2.52670000      -1.82870000
H       -0.06830000      -3.86050000      -0.31160000
H       -1.23750000      -2.23330000       1.35060000
H       -2.31710000      -2.59340000       0.01760000
