18
Properties=species:S:1:pos:R:3 gdb_19736=T pbc="F F F"
C       -0.04550000       1.57110000       0.05450000
C        1.48470000       1.36630000       0.00020000
O        1.76040000       0.74520000       1.26750000
C        0.85760000      -0.39410000       1.20060000
C        1.69650000      -1.57260000       0.70280000
C        2.15200000      -1.06940000      -0.70050000
C        1.24070000       0.14080000      -0.94140000
C       -0.01550000       0.02510000      -0.00930000
H       -0.44560000       2.05920000       0.94620000
H       -0.45960000       2.01350000      -0.85440000
H        2.20930000       2.15710000      -0.19240000
H        0.35660000      -0.52790000       2.16160000
H        2.53040000      -1.77990000       1.37770000
H        1.08640000      -2.48070000       0.62800000
H        3.20820000      -0.78450000      -0.70580000
H        2.01740000      -1.83200000      -1.47290000
H        1.03900000       0.41140000      -1.97770000
H       -0.88340000      -0.59100000      -0.24280000
