16
Properties=species:S:1:pos:R:3 gdb_12848=T pbc="F F F"
O        0.19370000       1.39190000      -0.22020000
C        0.07310000       0.00630000      -0.02290000
C        0.21430000      -0.80040000      -1.32710000
O       -0.97010000      -1.56500000      -1.01910000
C       -1.32120000      -0.69390000       0.08180000
C       -1.38210000      -1.43060000       1.42380000
C        0.03110000      -1.29290000       1.94960000
C        0.80810000      -0.53420000       1.17470000
H        0.16340000       1.81940000       0.64260000
H        0.08360000      -0.17270000      -2.21810000
H        1.10040000      -1.43400000      -1.44200000
H       -2.19800000      -0.08030000      -0.15060000
H       -2.12010000      -1.00510000       2.11670000
H       -1.66470000      -2.47680000       1.25930000
H        0.35840000      -1.78260000       2.86100000
H        1.85500000      -0.30930000       1.34980000
