17
Properties=species:S:1:pos:R:3 gdb_78411=T pbc="F F F"
C       -0.19920000       1.26000000      -0.02370000
N        0.07510000      -0.16710000       0.12160000
C        1.47570000      -0.52270000      -0.14310000
C        0.93720000      -0.49350000       1.25770000
C        1.02110000      -2.04170000       1.35810000
C        1.58970000      -2.06730000      -0.07580000
O        0.43430000      -2.82090000      -0.54060000
C       -0.12630000      -2.82100000       0.73300000
N       -1.17780000      -3.35150000       1.15680000
H        0.63670000       1.91100000       0.28320000
H       -0.43300000       1.47090000      -1.07130000
H       -1.07360000       1.51310000       0.58270000
H        2.13130000       0.16520000      -0.66310000
H        1.10580000       0.21780000       2.05640000
H        1.53630000      -2.46360000       2.21730000
H        2.53620000      -2.52300000      -0.36220000
H       -1.68800000      -3.81710000       0.40390000
