18
Properties=species:S:1:pos:R:3 gdb_51093=T pbc="F F F"
O       -0.18030000       0.33860000       0.98280000
C       -0.04940000       1.26870000       0.21840000
N        1.11140000       1.67560000      -0.37130000
C        2.41660000       1.10200000      -0.22050000
C        3.27750000       0.64580000      -1.44780000
C        4.38210000       0.70970000      -0.36540000
C        3.66060000       1.95280000       0.20870000
O        4.01810000      -0.33570000       0.54360000
C        2.59540000      -0.11980000       0.70220000
H       -0.89620000       1.91280000      -0.09400000
H        1.04260000       2.47360000      -0.98510000
H        3.06330000      -0.32740000      -1.89450000
H        3.36850000       1.42250000      -2.21040000
H        5.44690000       0.67080000      -0.58100000
H        3.78700000       2.85070000      -0.40030000
H        3.79520000       2.16990000       1.27050000
H        2.35250000       0.08670000       1.74650000
H        2.03490000      -0.99700000       0.37300000
