18
Properties=species:S:1:pos:R:3 gdb_98331=T pbc="F F F"
C       -0.22290000       1.55440000      -0.78090000
N       -0.15480000       0.11120000      -0.88100000
C        0.85210000      -0.61480000      -0.34520000
O        1.81260000      -0.14930000       0.24790000
C        0.68030000      -2.14130000      -0.50890000
N       -0.20490000      -2.47280000      -1.62250000
C        2.08650000      -2.79170000      -0.54560000
C        1.99520000      -4.24740000      -0.55470000
N        1.87370000      -5.39690000      -0.57370000
H        0.66990000       1.89170000      -0.25270000
H       -0.25050000       2.01950000      -1.77240000
H       -1.11010000       1.87280000      -0.22240000
H       -0.87950000      -0.41600000      -1.34710000
H        0.18100000      -2.48370000       0.40620000
H        0.27720000      -2.35530000      -2.51000000
H       -0.48910000      -3.44620000      -1.57060000
H        2.62840000      -2.46020000      -1.43920000
H        2.66290000      -2.44590000       0.31600000
