19
Properties=species:S:1:pos:R:3 gdb_69057=T pbc="F F F"
C       -0.22110000       1.46210000       0.18240000
C        0.15450000       0.02660000       0.01360000
C        0.48250000      -0.73350000      -1.28470000
C        1.36600000      -1.71540000      -0.44000000
C        0.98720000      -0.90280000       0.81010000
C        1.74640000      -0.74880000       2.09550000
C        1.65140000      -1.99490000       2.96190000
O        2.59630000      -2.55630000       3.45160000
O       -0.45160000      -0.93990000       0.89250000
H        0.47120000       2.11160000      -0.36280000
H       -1.22970000       1.64420000      -0.20570000
H       -0.21190000       1.74520000       1.23860000
H       -0.38310000      -1.16410000      -1.79350000
H        1.06910000      -0.14510000      -1.99460000
H        1.06020000      -2.76410000      -0.42110000
H        2.42720000      -1.64980000      -0.69220000
H        2.80230000      -0.52740000       1.91510000
H        1.30420000       0.07900000       2.66630000
H        0.61250000      -2.35880000       3.11980000
