18
Properties=species:S:1:pos:R:3 gdb_67011=T pbc="F F F"
C       -0.19850000       1.51810000      -0.02050000
C        0.09240000       0.05810000      -0.02520000
C        0.38780000      -0.97630000      -1.02230000
C        1.40390000      -1.68050000      -0.12250000
C        0.69800000      -0.95080000       1.06080000
C        1.36950000      -0.66430000       2.37370000
C       -0.70100000      -1.54540000       0.96700000
O       -1.45520000      -2.07270000       1.72520000
N       -0.97240000      -1.00030000      -0.35640000
H        0.72750000       2.10170000       0.01610000
H       -0.74690000       1.79520000      -0.92510000
H       -0.80950000       1.79460000       0.84500000
H        0.35910000      -0.92280000      -2.10330000
H        1.42010000      -2.77530000      -0.09750000
H        2.41250000      -1.29500000      -0.29530000
H        2.29150000      -0.09010000       2.23690000
H        0.70950000      -0.10440000       3.04340000
H        1.62920000      -1.60170000       2.87670000
