14
Properties=species:S:1:pos:R:3 gdb_127693=T pbc="F F F"
C       -0.01980000       1.45350000       0.01310000
N       -0.00050000       0.00040000       0.06970000
N       -0.06500000      -0.65860000      -1.14660000
N       -0.05220000      -1.90400000      -1.16770000
C        0.02920000      -2.68390000       0.04970000
N        0.04090000      -3.95360000      -0.01400000
N        0.09220000      -2.01110000       1.26490000
C        0.07490000      -0.73160000       1.21650000
O        0.13120000       0.01160000       2.32640000
H        0.89240000       1.87070000       0.44700000
H       -0.08490000       1.72290000      -1.04110000
H       -0.88360000       1.85120000       0.55170000
H       -0.01360000      -4.22820000      -0.99570000
H        0.18160000      -0.61810000       3.06250000
