18
Properties=species:S:1:pos:R:3 gdb_38566=T pbc="F F F"
C       -0.05480000       1.49710000      -0.21310000
C        1.35120000       1.98690000       0.09230000
C        2.11090000       1.65120000       1.32730000
C        1.58340000       0.77320000       2.45020000
C        1.04220000      -0.48140000       1.75530000
O       -0.35130000      -0.35690000       1.39920000
C       -0.01430000      -0.01460000       0.03790000
C        1.48640000      -0.35080000       0.27050000
N        2.32420000       0.85280000       0.08230000
H       -0.83470000       1.96400000       0.39560000
H       -0.27800000       1.70770000      -1.26480000
H        1.68360000       2.86910000      -0.45000000
H        2.93260000       2.31710000       1.58050000
H        2.41600000       0.51730000       3.11480000
H        0.80180000       1.24080000       3.05600000
H        1.22870000      -1.40980000       2.30170000
H       -0.60160000      -0.60100000      -0.67380000
H        1.91180000      -1.21980000      -0.22740000
