16
Properties=species:S:1:pos:R:3 gdb_50951=T pbc="F F F"
O       -0.56360000       0.75610000       0.90990000
C        0.07250000       0.96700000      -0.08960000
C        1.31950000       1.83070000      -0.12670000
C        1.29500000       2.88920000      -1.25810000
C        2.55200000       3.79740000      -1.14500000
C        2.54020000       4.90840000      -2.09310000
N        2.52020000       5.79440000      -2.83390000
C        1.21460000       2.27070000      -2.57900000
C        1.17880000       1.75230000      -3.66230000
H       -0.21750000       0.52470000      -1.06660000
H        1.42940000       2.31130000       0.84940000
H        2.18120000       1.16770000      -0.28550000
H        0.41480000       3.52840000      -1.11390000
H        2.61210000       4.20500000      -0.13010000
H        3.45320000       3.19760000      -1.31050000
H        1.13340000       1.30950000      -4.62710000
