15
Properties=species:S:1:pos:R:3 gdb_5549=T pbc="F F F"
C        0.26080000       1.01530000      -0.33600000
O       -0.26510000       0.19780000       0.71570000
C       -1.34170000      -0.55450000       0.36260000
C       -1.39510000      -1.87270000      -0.02570000
O       -0.34000000      -2.72450000      -0.19080000
C       -2.76090000      -2.20460000      -0.23680000
C       -3.49890000      -1.07370000       0.03290000
N       -2.63560000      -0.06840000       0.38810000
H        1.14100000       1.51940000       0.06900000
H        0.54660000       0.40670000      -1.20180000
H       -0.47100000       1.76620000      -0.65830000
H        0.43860000      -2.29190000       0.17750000
H       -3.14180000      -3.16260000      -0.55270000
H       -4.56300000      -0.90700000       0.00370000
H       -2.89350000       0.83590000       0.74150000
