18
Properties=species:S:1:pos:R:3 gdb_97086=T pbc="F F F"
C        0.15720000       1.41550000      -0.05450000
N       -0.07820000       0.01620000       0.26080000
C        0.67820000      -0.58850000       1.05880000
C        0.53210000      -2.02980000       1.49970000
C        1.92100000      -2.37260000       2.05600000
C        2.40500000      -0.98020000       2.53350000
O        1.79210000      -0.04070000       1.66700000
C        2.00070000      -0.74940000       3.98400000
O        1.08080000      -0.06290000       4.33570000
H        0.20980000       1.52990000      -1.14290000
H       -0.70250000       2.00520000       0.28400000
H        1.06520000       1.83580000       0.39130000
H       -0.23290000      -2.08680000       2.28140000
H        0.21260000      -2.66250000       0.67210000
H        1.90640000      -3.11470000       2.85780000
H        2.58440000      -2.73850000       1.26800000
H        3.49280000      -0.86860000       2.45550000
H        2.62820000      -1.31520000       4.71260000
