17
Properties=species:S:1:pos:R:3 gdb_7424=T pbc="F F F"
C       -0.07450000       1.50120000      -0.12670000
C       -0.01140000      -0.03400000       0.05430000
C        0.73840000      -0.43400000       1.32580000
C       -1.42400000      -0.57950000       0.05120000
O       -2.02060000      -0.94240000       1.04130000
C       -2.12720000      -0.65370000      -1.33120000
N       -3.39950000      -1.09420000      -1.22860000
O       -1.55920000      -0.34590000      -2.36290000
H        0.94060000       1.90720000      -0.16050000
H       -0.58060000       1.76700000      -1.05690000
H       -0.59920000       1.97150000       0.71170000
H        0.48280000      -0.43990000      -0.83540000
H        0.22870000      -0.05170000       2.21450000
H        0.80360000      -1.52130000       1.42590000
H        1.75480000      -0.03000000       1.30850000
H       -3.75320000      -1.34180000      -0.31850000
H       -3.96170000      -1.20820000      -2.05450000
