14
Properties=species:S:1:pos:R:3 gdb_29810=T pbc="F F F"
C       -0.04940000       1.46120000       0.04370000
N        0.01090000       0.01070000      -0.01250000
C        0.06610000      -0.75380000      -1.15230000
C        0.11050000      -2.06130000      -0.70830000
O        0.17180000      -3.16290000      -1.47770000
N        0.08490000      -2.12490000       0.64130000
C        0.02450000      -0.85710000       1.04270000
C       -0.02170000      -0.41520000       2.38730000
N       -0.06100000      -0.01650000       3.47480000
H        0.83470000       1.89660000      -0.42980000
H       -0.94560000       1.82410000      -0.46670000
H       -0.08380000       1.77310000       1.08800000
H        0.06880000      -0.32220000      -2.13790000
H        0.19010000      -3.91970000      -0.87830000
