19
Properties=species:S:1:pos:R:3 gdb_40299=T pbc="F F F"
C       -0.04440000       1.52960000      -0.08850000
O        1.16870000       0.79820000      -0.23600000
C       -0.03790000       0.06390000       0.03450000
C       -0.13830000      -0.53160000       1.43690000
O       -0.10560000      -1.94180000       1.48900000
C        0.96920000      -2.55720000       0.79190000
C        0.57550000      -2.88950000      -0.64570000
O        0.48010000      -1.76620000      -1.49740000
C       -0.48960000      -0.80310000      -1.13130000
H       -0.11960000       2.14170000       0.81080000
H       -0.43040000       1.99610000      -0.99440000
H        0.66670000      -0.08680000       2.04240000
H       -1.09800000      -0.25650000       1.88790000
H        1.86830000      -1.92550000       0.80580000
H        1.19430000      -3.48970000       1.32300000
H        1.33570000      -3.53770000      -1.09520000
H       -0.37950000      -3.43990000      -0.62060000
H       -1.45250000      -1.28090000      -0.89110000
H       -0.62330000      -0.17340000      -2.01530000
