18
Properties=species:S:1:pos:R:3 gdb_81859=T pbc="F F F"
C       -0.00980000       1.61920000       0.24600000
C        0.12090000       0.13720000       0.06530000
C       -0.88480000      -0.87420000       0.53410000
C        0.52050000      -0.86900000       1.11150000
C        1.52430000      -1.78400000       0.44900000
O        1.24910000      -3.15770000       0.59610000
C        1.45230000      -1.36800000      -1.02110000
N        1.94420000      -2.07410000      -1.94400000
O        0.76810000      -0.20570000      -1.16910000
H        0.97180000       2.10330000       0.23220000
H       -0.61870000       2.05580000      -0.55220000
H       -0.49240000       1.84060000       1.20170000
H       -1.68410000      -0.52690000       1.17920000
H       -1.15650000      -1.68490000      -0.13350000
H        0.67120000      -0.57530000       2.14270000
H        2.53300000      -1.54840000       0.82650000
H        1.60750000      -3.57930000      -0.19810000
H        1.75560000      -1.68460000      -2.86750000
