21
Properties=species:S:1:pos:R:3 gdb_113400=T pbc="F F F"
C        0.44810000       1.45010000       0.26510000
C       -0.28690000       0.17970000      -0.17800000
C        0.32920000      -0.43780000      -1.40960000
O        1.61800000      -1.09840000      -1.21640000
C        0.50490000      -1.87020000      -1.59110000
C       -0.01400000      -3.15350000      -0.92050000
C       -0.96640000      -3.27240000      -2.15070000
C        0.41200000      -2.86550000      -2.75820000
C        1.05550000      -3.90270000      -1.78100000
H        1.49700000       1.22780000       0.48180000
H        0.42210000       2.21670000      -0.51710000
H       -0.00540000       1.87510000       1.16540000
H       -0.28020000      -0.55940000       0.63040000
H       -1.33910000       0.40840000      -0.39310000
H        0.31070000       0.19200000      -2.30230000
H       -0.25780000      -3.31830000       0.12860000
H       -1.30430000      -4.28380000      -2.38750000
H       -1.77930000      -2.54560000      -2.22560000
H        0.65470000      -2.69710000      -3.80710000
H        2.10120000      -3.74180000      -1.51320000
H        0.84420000      -4.95390000      -1.99400000
