18
Properties=species:S:1:pos:R:3 gdb_40341=T pbc="F F F"
C       -0.25040000       1.20250000      -0.38730000
C        1.16510000       1.16830000       0.06630000
N        0.34480000      -0.05010000       0.08230000
C       -0.07540000      -0.51580000       1.34630000
C       -1.38240000      -1.10750000       1.84570000
C       -0.69580000      -2.39740000       2.28950000
C        0.58680000      -1.53050000       2.37070000
O        0.32310000      -0.61920000       3.47320000
C       -0.63780000       0.01280000       2.63260000
H       -0.96700000       1.70240000       0.26100000
H       -0.49210000       1.23310000      -1.44530000
H        1.97250000       1.17090000      -0.65930000
H        1.39380000       1.63190000       1.02250000
H       -2.37980000      -0.95760000       1.45140000
H       -1.00950000      -2.88180000       3.21910000
H       -0.64260000      -3.12090000       1.47220000
H        1.59490000      -1.93910000       2.37230000
H       -1.08730000       0.94590000       2.94650000
