14
Properties=species:S:1:pos:R:3 gdb_45027=T pbc="F F F"
N       -0.16570000       1.33640000       0.06840000
C       -0.12970000       0.08170000      -0.01650000
O        1.07390000      -0.58400000      -0.25450000
C        1.18880000      -1.81350000      -0.85110000
O        2.25200000      -2.21300000      -1.20110000
O        0.06320000      -2.52850000      -1.02780000
C       -1.15420000      -2.17450000      -0.40870000
C       -1.20650000      -1.99720000       1.06890000
C       -1.30640000      -0.78530000       0.13970000
H        0.75840000       1.73960000      -0.09400000
H       -1.97080000      -2.64440000      -0.94070000
H       -2.10920000      -2.29190000       1.59020000
H       -0.28780000      -2.12590000       1.63020000
H       -2.25390000      -0.27120000       0.05290000
