21
Properties=species:S:1:pos:R:3 gdb_114655=T pbc="F F F"
C       -0.03780000       1.74240000      -0.66930000
C        0.22830000       0.26110000      -0.44390000
C        1.47140000      -0.48710000      -0.98590000
C        2.68450000       0.24530000      -0.36520000
C        2.18730000       0.24170000       1.11620000
C        2.23080000       1.56090000       1.87100000
O        1.67980000       1.32360000       3.16190000
C        0.80130000      -0.39310000       0.84730000
O        1.20490000      -1.52590000       0.00600000
H        0.86090000       2.35990000      -0.60880000
H       -0.47040000       1.89560000      -1.66410000
H       -0.75790000       2.12720000       0.06100000
H       -0.65240000      -0.32380000      -0.72230000
H        1.55070000      -0.85390000      -2.01000000
H        3.60740000      -0.32170000      -0.50190000
H        2.83580000       1.24870000      -0.77710000
H        2.75970000      -0.48220000       1.70330000
H        3.27670000       1.90130000       1.94170000
H        1.67000000       2.34590000       1.34630000
H        1.70620000       2.14730000       3.65730000
H        0.18440000      -0.66450000       1.70250000
