19
Properties=species:S:1:pos:R:3 gdb_7360=T pbc="F F F"
C       -0.51140000       1.59580000      -0.54850000
C        0.16930000       0.37780000       0.08380000
C        0.91340000       0.76090000       1.39500000
C        2.24740000       0.04230000       1.62500000
N        2.06170000      -1.40520000       1.84460000
H        2.92980000      -1.91040000       1.70200000
H        1.77430000      -1.58220000       2.80350000
H        0.57080000      -1.82310000       1.03040000
C       -0.85800000      -0.75530000       0.27550000
O       -2.01980000      -0.63470000      -0.02320000
O       -0.38880000      -1.90160000       0.77850000
H        0.23000000       2.36370000      -0.79270000
H       -1.04440000       1.31550000      -1.45850000
H       -1.24650000       2.02780000       0.13660000
H        0.92000000      -0.00780000      -0.62210000
H        1.12910000       1.83460000       1.36330000
H        0.25800000       0.61430000       2.26350000
H        2.87430000       0.16030000       0.73390000
H        2.78330000       0.52020000       2.45740000
