19
Properties=species:S:1:pos:R:3 gdb_117569=T pbc="F F F"
C        0.09780000       1.27310000      -0.42080000
C        0.03950000      -0.12320000       0.16990000
O       -1.07380000      -0.80330000      -0.40990000
C       -1.23190000      -2.13790000       0.00090000
C       -1.62550000      -2.22720000       1.42760000
N       -1.92680000      -2.29270000       2.54130000
C       -2.28670000      -2.80650000      -0.87560000
C       -3.45290000      -2.03340000      -1.35690000
N       -2.37830000      -2.43860000      -2.28750000
H        0.94370000       1.82260000       0.00180000
H        0.22000000       1.23050000      -1.50680000
H       -0.81950000       1.82400000      -0.19660000
H        0.96240000      -0.68340000      -0.04660000
H       -0.07870000      -0.08310000       1.26160000
H       -0.27910000      -2.68400000      -0.10620000
H       -2.39280000      -3.86830000      -0.66860000
H       -4.40460000      -2.53380000      -1.50560000
H       -3.51240000      -0.98840000      -1.07120000
H       -1.77720000      -1.63260000      -2.44830000
