12
Properties=species:S:1:pos:R:3 gdb_20530=T pbc="F F F"
C       -0.02360000       1.50810000      -0.04210000
C       -0.02750000       0.01190000       0.08130000
O       -0.04950000      -0.62390000       1.09890000
N       -0.00150000      -0.69680000      -1.16610000
C        0.00230000      -2.03760000      -1.37880000
N        0.02920000      -2.26480000      -2.66440000
N        0.04260000      -1.02500000      -3.25920000
N        0.02490000      -0.08930000      -2.38540000
H        0.86720000       1.84260000      -0.58100000
H       -0.88680000       1.84420000      -0.62290000
H       -0.04680000       1.93520000       0.95960000
H       -0.01500000      -2.76350000      -0.58400000
