17
Properties=species:S:1:pos:R:3 gdb_50686=T pbc="F F F"
O        0.02460000      -0.05670000      -0.13970000
C        0.05020000       1.15490000      -0.11890000
N        1.19480000       1.89300000      -0.08640000
C        2.52260000       1.27640000       0.00580000
C        3.39170000       2.39980000       0.58310000
C        2.75460000       3.67060000       0.00070000
C        1.23790000       3.35340000       0.04260000
C        0.48640000       4.04530000      -1.01300000
N       -0.10590000       4.60550000      -1.83170000
H       -0.86020000       1.78500000      -0.12770000
H        2.46750000       0.38470000       0.63320000
H        2.86980000       0.96380000      -0.98680000
H        3.32240000       2.40650000       1.67600000
H        4.44480000       2.29860000       0.31390000
H        2.98780000       4.58240000       0.55260000
H        3.06430000       3.81350000      -1.03840000
H        0.81610000       3.67170000       1.00610000
