12
Properties=species:S:1:pos:R:3 gdb_23715=T pbc="F F F"
F        0.00180000       0.01970000       0.00370000
C       -0.01640000       1.35760000       0.01080000
C       -1.23780000       2.01720000       0.03010000
C       -1.25670000       3.40930000       0.03750000
C       -0.05360000       4.10200000       0.02550000
F       -0.07180000       5.43990000       0.03270000
C        1.16780000       3.44240000       0.00630000
C        1.18670000       2.05030000      -0.00110000
H       -2.15590000       1.44220000       0.03900000
H       -2.19000000       3.95910000       0.05240000
H        2.08590000       4.01740000      -0.00260000
H        2.12010000       1.50050000      -0.01610000
