13
Properties=species:S:1:pos:R:3 gdb_11215=T pbc="F F F"
O       -0.81100000       0.83650000       0.53150000
C        0.25120000       0.81870000      -0.03000000
C        1.28050000       1.94580000       0.08220000
C        1.35350000       2.55350000       1.49570000
N        2.48730000       1.81090000       2.01100000
C        3.28090000       1.30930000       1.00580000
O        4.37700000       0.83600000       1.07960000
O        2.58300000       1.42080000      -0.18000000
H        0.57010000      -0.01430000      -0.69140000
H        1.04630000       2.69180000      -0.68530000
H        1.53300000       3.63550000       1.46800000
H        0.42840000       2.35580000       2.04280000
H        2.92770000       2.03110000       2.88880000
