14
Properties=species:S:1:pos:R:3 gdb_47217=T pbc="F F F"
O       -0.25060000       0.61510000      -1.30870000
C       -0.01720000       1.32280000      -0.36420000
C       -1.03830000       1.54660000       0.74110000
O       -0.97190000       2.83710000       1.36430000
C        0.07110000       3.63840000       1.06320000
N        1.11700000       3.41090000       0.38970000
C        1.31300000       2.05670000      -0.15280000
C        2.15030000       1.25250000       0.73670000
C        2.79710000       0.56910000       1.48410000
H       -2.04360000       1.42300000       0.33310000
H       -0.87780000       0.78500000       1.51500000
H       -0.08650000       4.61860000       1.50900000
H        1.79680000       2.14140000      -1.13160000
H        3.38920000      -0.02560000       2.13540000
