18
Properties=species:S:1:pos:R:3 gdb_127935=T pbc="F F F"
C        0.04790000       1.44800000      -0.03090000
N        0.09870000       0.00290000      -0.11090000
C        0.58790000      -0.63750000       0.88920000
N        1.08090000      -0.04680000       2.06190000
N        1.60190000      -0.67010000       3.13490000
C        1.65790000      -1.96390000       3.08660000
C        1.19930000      -2.75010000       1.96420000
C        1.31620000      -4.24740000       2.02400000
C        0.68230000      -2.08390000       0.90580000
H        1.04530000       1.90990000       0.07890000
H       -0.39010000       1.84690000      -0.94940000
H       -0.57170000       1.81270000       0.80770000
H        1.06150000       0.95560000       2.15250000
H        2.08140000      -2.44570000       3.96210000
H        2.36040000      -4.55490000       2.15400000
H        0.75790000      -4.65130000       2.87660000
H        0.93350000      -4.71320000       1.11320000
H        0.31390000      -2.59020000       0.02090000
