24
Properties=species:S:1:pos:R:3 gdb_6498=T pbc="F F F"
C       -0.98460000       0.54160000       0.09150000
C        0.54650000       0.56710000      -0.02940000
C        1.19440000       0.22430000       1.31870000
C        0.99070000      -0.34440000      -1.19460000
C        2.48070000      -0.37940000      -1.54170000
C        3.32360000      -1.39880000      -0.79160000
C        2.86350000      -0.15320000      -2.98890000
C        3.14590000       0.91330000      -1.95920000
H       -1.46720000       0.82280000      -0.85070000
H       -1.34010000      -0.46090000       0.35930000
H       -1.33200000       1.23290000       0.86640000
H        0.84260000       1.59400000      -0.28500000
H        1.00700000      -0.82020000       1.59580000
H        2.27580000       0.38140000       1.30240000
H        0.78360000       0.85470000       2.11490000
H        0.65440000      -1.37110000      -0.98950000
H        0.43280000      -0.02270000      -2.08290000
H        2.94910000      -2.41450000      -0.96830000
H        4.36500000      -1.36840000      -1.12800000
H        3.32200000      -1.23190000       0.28910000
H        3.70250000      -0.71330000      -3.38920000
H        2.07210000       0.03140000      -3.70810000
H        2.54490000       1.81630000      -1.98920000
H        4.17580000       1.08180000      -1.66180000
