17
Properties=species:S:1:pos:R:3 gdb_62894=T pbc="F F F"
C       -0.05180000       1.56880000      -0.00740000
C       -0.05570000       0.05200000      -0.01040000
O       -1.32610000      -0.48600000      -0.27750000
C        1.20070000      -0.67070000      -0.63390000
O        1.97690000      -0.18350000       0.53200000
C        0.71410000      -0.68090000       1.12980000
C        0.83600000      -1.90410000       0.20500000
C        0.20500000      -3.19590000       0.02470000
O        1.59810000      -3.05130000       0.40980000
H        0.93780000       1.95340000       0.23680000
H       -0.33820000       1.95140000      -0.99540000
H       -0.77690000       1.94410000       0.72160000
H       -1.75480000       0.06650000      -0.93860000
H        1.65890000      -0.58720000      -1.61940000
H        0.59870000      -0.61200000       2.21110000
H       -0.44990000      -3.59460000       0.79680000
H        0.04100000      -3.58750000      -0.97730000
