17
Properties=species:S:1:pos:R:3 gdb_20866=T pbc="F F F"
C       -0.10820000       1.58720000      -0.02010000
C       -0.10930000       0.05790000      -0.06310000
C        0.81230000      -0.50220000      -1.16540000
C        0.85140000      -1.99500000      -1.21690000
C        1.80430000      -2.92500000      -0.86530000
N        1.32090000      -4.17890000      -1.09200000
N        0.11400000      -4.08870000      -1.56750000
N       -0.17680000      -2.77280000      -1.64440000
H        0.89730000       1.97660000       0.17340000
H       -0.45010000       2.01260000      -0.97020000
H       -0.76750000       1.96060000       0.76890000
H        0.20980000      -0.34730000       0.90400000
H       -1.13150000      -0.30780000      -0.22280000
H        0.49860000      -0.10100000      -2.13850000
H        1.83330000      -0.14080000      -1.00270000
H        2.79500000      -2.76180000      -0.47230000
H       -1.07680000      -2.49070000      -1.99920000
