16
Properties=species:S:1:pos:R:3 gdb_66039=T pbc="F F F"
N       -0.02430000       1.47390000      -0.05440000
C        0.04060000       0.01800000      -0.04760000
C        0.13320000      -0.52590000       1.41370000
N       -1.33650000      -0.69430000       1.43710000
C       -1.40800000      -0.61360000      -0.03290000
C       -2.49520000       0.19580000      -0.58110000
N       -3.34130000       0.82430000      -1.05530000
C        0.95980000      -0.55850000      -1.02050000
C        1.72740000      -1.00530000      -1.83190000
H        0.90560000       1.85150000       0.10570000
H       -0.31910000       1.80350000      -0.97020000
H        0.70910000      -1.45670000       1.47040000
H        0.51020000       0.19280000       2.14660000
H       -1.67720000      -1.56430000       1.82880000
H       -1.40140000      -1.58150000      -0.54990000
H        2.40510000      -1.39800000      -2.54970000
