27
Properties=species:S:1:pos:R:3 gdb_122884=T pbc="F F F"
C        0.00500000       1.48480000      -0.03180000
O       -0.00070000       0.07980000       0.00540000
C        0.63610000      -0.50230000      -1.11190000
C        0.57580000      -2.01850000      -0.97590000
C        1.25010000      -2.72640000      -2.15710000
C        1.25450000      -4.27630000      -2.13650000
C       -0.18230000      -4.83030000      -2.14110000
C        1.97690000      -4.76130000      -3.40760000
C        2.00940000      -4.80780000      -0.90410000
H        1.02930000       1.89170000      -0.04130000
H       -0.52290000       1.87480000      -0.91740000
H       -0.50600000       1.84020000       0.86660000
H        0.14150000      -0.17920000      -2.04540000
H        1.68540000      -0.16250000      -1.17420000
H        1.05420000      -2.29410000      -0.02990000
H       -0.47670000      -2.31070000      -0.89390000
H        0.76550000      -2.39990000      -3.08810000
H        2.29240000      -2.38410000      -2.22580000
H       -0.74910000      -4.45260000      -2.99980000
H       -0.17410000      -5.92400000      -2.20450000
H       -0.72960000      -4.56010000      -1.23290000
H        3.00880000      -4.39440000      -3.44150000
H        2.01040000      -5.85560000      -3.44740000
H        1.46720000      -4.41010000      -4.31170000
H        1.51040000      -4.53720000       0.03140000
H        2.07660000      -5.90090000      -0.93430000
H        3.03140000      -4.41370000      -0.86590000
