22
Properties=species:S:1:pos:R:3 gdb_6602=T pbc="F F F"
C        0.02650000       1.52410000       0.00930000
C       -0.06300000      -0.00640000       0.00320000
C       -1.47920000      -0.52670000       0.01350000
C       -2.59580000      -0.27810000      -1.04920000
C       -3.25290000      -1.19550000       0.02650000
C       -4.66140000      -1.72600000       0.03670000
C       -1.92890000      -2.01890000       0.01190000
C       -2.57720000      -0.28610000       1.09740000
H        1.06830000       1.85840000       0.00130000
H       -0.46920000       1.95240000      -0.86820000
H       -0.45300000       1.94430000       0.89960000
H        0.45430000      -0.40230000      -0.88100000
H        0.47010000      -0.41020000       0.87430000
H       -2.98810000       0.74100000      -1.12730000
H       -2.43720000      -0.71970000      -2.03890000
H       -4.85910000      -2.34000000      -0.84910000
H       -4.84350000      -2.34700000       0.92100000
H       -5.39150000      -0.90880000       0.04640000
H       -1.71820000      -2.59340000      -0.89640000
H       -1.70240000      -2.60020000       0.91200000
H       -2.40140000      -0.73510000       2.08080000
H       -2.96790000       0.73230000       1.18990000
