11
Properties=species:S:1:pos:R:3 gdb_429=T pbc="F F F"
O        0.03220000       1.42850000       0.16310000
C        0.02230000       0.02810000       0.07230000
C       -1.39790000      -0.59470000      -0.03510000
N       -0.97100000      -1.16920000      -1.31980000
C        0.25030000      -0.54780000      -1.35450000
O        1.11650000      -0.45020000      -2.18300000
H        0.82440000       1.73820000      -0.29130000
H        0.65110000      -0.44610000       0.83800000
H       -1.66270000      -1.33490000       0.72460000
H       -2.17840000       0.16650000      -0.11930000
H       -1.48690000      -1.65630000      -2.03840000
