18
Properties=species:S:1:pos:R:3 gdb_95186=T pbc="F F F"
C        0.20720000       1.53260000      -0.05460000
C        0.05040000       0.01740000      -0.03690000
O        0.65280000      -0.49540000      -1.21430000
C        0.68570000      -1.90240000      -1.30080000
C        1.49220000      -2.50980000      -0.16940000
N        2.63800000      -1.71330000       0.25430000
C        1.44940000      -1.80980000       1.14870000
C        0.58960000      -0.59230000       1.26730000
O        0.23890000      -0.16450000       2.34430000
H        1.26720000       1.79600000      -0.10350000
H       -0.29690000       1.95240000      -0.92800000
H       -0.22440000       1.95450000       0.85470000
H       -1.02670000      -0.23860000      -0.03350000
H       -0.33210000      -2.33060000      -1.29450000
H        1.14470000      -2.13390000      -2.26730000
H        1.56420000      -3.59560000      -0.16130000
H        3.36440000      -2.31430000       0.63620000
H        1.54380000      -2.37430000       2.07150000
