18
Properties=species:S:1:pos:R:3 gdb_88115=T pbc="F F F"
O       -0.00930000       1.40330000      -0.08250000
C        0.01210000       0.00770000      -0.02220000
C       -0.43430000      -0.68330000       1.24530000
C       -1.31390000      -0.69940000       0.01480000
C       -2.57500000       0.12630000       0.00750000
O       -3.06380000       0.31260000      -1.33310000
C       -2.85420000      -0.70950000      -2.19400000
N       -2.19690000      -1.77940000      -2.04110000
C       -1.49970000      -1.98180000      -0.77400000
H        0.70950000       1.73760000       0.46380000
H        0.80400000      -0.46360000      -0.60520000
H        0.05170000      -1.60710000       1.54410000
H       -0.73670000      -0.04190000       2.06780000
H       -3.36340000      -0.36760000       0.59070000
H       -2.40580000       1.12670000       0.40580000
H       -3.35650000      -0.50000000      -3.13710000
H       -0.52990000      -2.44690000      -0.98910000
H       -2.06110000      -2.71630000      -0.17850000
