8
Properties=species:S:1:pos:R:3 gdb_14564=T pbc="F F F"
N        0.08710000      -6.27690000      -0.03250000
C        0.07110000      -5.11380000      -0.02610000
C        0.05250000      -3.75520000      -0.01870000
C        0.03600000      -2.53880000      -0.01200000
C        0.01780000      -1.19390000      -0.00460000
C        0.00130000       0.02250000       0.00210000
C       -0.01690000       1.38100000       0.00960000
N       -0.03250000       2.54420000       0.01600000
