16
Properties=species:S:1:pos:R:3 gdb_127221=T pbc="F F F"
C       -0.02430000       1.40140000       0.08980000
N       -0.01230000      -0.04320000      -0.01560000
C       -0.07050000      -0.79310000      -1.13000000
C       -0.02840000      -2.11810000      -0.71910000
C       -0.06310000      -3.27290000      -1.53260000
N       -0.09040000      -4.23220000      -2.18230000
C        0.05740000      -2.05510000       0.70300000
C        0.13080000      -3.19040000       1.66970000
N        0.06590000      -0.79250000       1.11020000
H        0.89200000       1.74890000       0.57320000
H       -0.09180000       1.82820000      -0.91180000
H       -0.88270000       1.72600000       0.68300000
H       -0.13610000      -0.36080000      -2.11550000
H        1.00970000      -3.81500000       1.47920000
H        0.18800000      -2.80510000       2.68920000
H       -0.74840000      -3.83760000       1.58640000
