23
Properties=species:S:1:pos:R:3 gdb_120652=T pbc="F F F"
C        0.08500000       1.58100000       0.32610000
C       -0.00610000       0.05300000       0.31750000
C       -1.31170000      -0.46930000      -0.29780000
C       -1.40870000      -1.98030000      -0.30120000
C       -1.86660000      -2.73920000       0.94360000
C       -2.72460000      -2.68580000      -0.27900000
C       -4.14260000      -2.15420000      -0.46770000
C       -4.33800000      -3.43910000      -1.30140000
O       -2.96980000      -3.84850000      -1.07580000
H        1.02710000       1.92310000       0.76570000
H        0.02490000       1.98780000      -0.68970000
H       -0.73260000       2.02370000       0.90640000
H        0.84390000      -0.36350000      -0.23860000
H        0.08510000      -0.33090000       1.34130000
H       -2.16370000      -0.05050000       0.25560000
H       -1.40390000      -0.09200000      -1.32600000
H       -0.64430000      -2.49020000      -0.88450000
H       -1.38260000      -3.68320000       1.17030000
H       -2.17390000      -2.16350000       1.81280000
H       -4.74560000      -2.08620000       0.43980000
H       -4.22170000      -1.21890000      -1.02590000
H       -5.05100000      -4.16480000      -0.89360000
H       -4.54660000      -3.29010000      -2.36690000
