25
Properties=species:S:1:pos:R:3 gdb_106512=T pbc="F F F"
C        0.09920000       1.52180000       0.27300000
C       -0.12120000       0.04660000      -0.08320000
C        0.68620000      -0.45130000      -1.27910000
C        2.24890000      -0.41920000      -1.19770000
C        2.22910000      -1.71380000      -2.06190000
C        0.82620000      -1.99240000      -1.46230000
C        2.08580000      -1.37940000      -3.55580000
C        1.27020000      -0.07950000      -3.74400000
C        0.21750000       0.13450000      -2.63100000
H        1.15640000       1.72420000       0.47630000
H       -0.21700000       2.19190000      -0.53260000
H       -0.46880000       1.79560000       1.16760000
H        0.13830000      -0.56920000       0.78820000
H       -1.18950000      -0.13070000      -0.27160000
H        2.78350000       0.45750000      -1.57430000
H        2.58820000      -0.62810000      -0.17860000
H        3.01160000      -2.45660000      -1.88740000
H        0.88680000      -2.50610000      -0.49740000
H        0.09120000      -2.50090000      -2.09600000
H        3.07050000      -1.26260000      -4.02350000
H        1.60040000      -2.22420000      -4.06070000
H        1.96440000       0.76730000      -3.72560000
H        0.79820000      -0.05370000      -4.73130000
H       -0.73490000      -0.34230000      -2.89740000
H        0.00950000       1.20660000      -2.54090000
