18
Properties=species:S:1:pos:R:3 gdb_35136=T pbc="F F F"
N       -0.44860000      -1.11010000      -0.48350000
C       -0.19960000      -0.01120000      -0.22630000
C        0.10130000       1.38630000       0.11070000
C       -0.08660000       1.76680000       1.60060000
C        1.45710000       1.87500000       1.62180000
O        1.51160000       1.64990000       0.17750000
C        2.08190000       3.16790000       2.03240000
C        2.58090000       3.32970000       3.45130000
C        3.56280000       3.22910000       2.31660000
H       -0.39920000       2.03460000      -0.61740000
H       -0.60110000       2.71870000       1.73850000
H       -0.53520000       1.00710000       2.23920000
H        1.93930000       1.03940000       2.14710000
H        1.63910000       4.04430000       1.56660000
H        2.43600000       4.29070000       3.93110000
H        2.48940000       2.48150000       4.12200000
H        4.13380000       2.31220000       2.21630000
H        4.09830000       4.12150000       2.01410000
