19
Properties=species:S:1:pos:R:3 gdb_74293=T pbc="F F F"
C        0.00880000       1.53660000       0.06770000
C        0.04330000       0.04290000       0.01650000
C       -0.04670000      -0.73090000      -1.06670000
C        0.01580000      -2.21900000      -0.74510000
N        0.95310000      -3.02860000      -1.54150000
C        0.44560000      -2.21190000       0.75760000
C        0.14730000      -0.79090000       1.27710000
C       -1.32670000      -2.81300000      -0.91150000
N       -2.39040000      -3.24530000      -1.04660000
H        0.91800000       1.93500000       0.53520000
H       -0.08750000       1.97670000      -0.92800000
H       -0.83300000       1.88570000       0.67870000
H       -0.18280000      -0.38540000      -2.08590000
H        0.63040000      -3.09050000      -2.50360000
H        1.84690000      -2.54370000      -1.56590000
H       -0.04000000      -3.00390000       1.32900000
H        1.52150000      -2.40790000       0.77840000
H        0.92060000      -0.42230000       1.96110000
H       -0.79890000      -0.75070000       1.83340000
