18
Properties=species:S:1:pos:R:3 gdb_9274=T pbc="F F F"
O        0.09970000       1.42370000      -0.12780000
C        0.10320000       0.02250000       0.02930000
C       -1.32420000      -0.52770000       0.07690000
O       -2.04390000      -0.04830000      -1.06810000
C       -1.37850000      -2.04940000       0.19470000
C       -2.82130000      -2.58310000       0.30350000
C       -2.88520000      -4.03810000       0.34270000
C       -2.90830000      -5.23960000       0.37090000
H       -0.60540000       1.60760000      -0.76230000
H        0.65190000      -0.47650000      -0.79200000
H        0.63330000      -0.20610000       0.96050000
H       -1.84100000      -0.06640000       0.92750000
H       -1.68750000      -0.49770000      -1.84480000
H       -0.88870000      -2.50300000      -0.67750000
H       -0.80230000      -2.36750000       1.07090000
H       -3.29320000      -2.16940000       1.20440000
H       -3.40490000      -2.20340000      -0.54280000
H       -2.94450000      -6.30030000       0.39800000
