20
Properties=species:S:1:pos:R:3 gdb_15171=T pbc="F F F"
C       -0.14050000       1.52970000      -0.03890000
C       -0.13450000       0.00340000      -0.14230000
C        0.97440000      -0.51900000      -1.07870000
C        1.00270000      -1.97300000      -1.19300000
C        1.00200000      -3.17660000      -1.26950000
C        1.01210000      -4.60860000      -1.36070000
C       -0.13420000      -5.34430000      -2.03740000
C        1.20800000      -5.29180000      -2.70540000
H        0.81280000       1.90570000       0.34960000
H       -0.30410000       1.99430000      -1.01790000
H       -0.93270000       1.87820000       0.63060000
H        0.00270000      -0.44160000       0.84950000
H       -1.10340000      -0.35440000      -0.50820000
H        0.84300000      -0.07540000      -2.07560000
H        1.94840000      -0.15790000      -0.72010000
H        1.45570000      -5.11880000      -0.51010000
H       -0.45720000      -6.27910000      -1.59300000
H       -0.93220000      -4.73750000      -2.44820000
H        1.32250000      -4.64930000      -3.57010000
H        1.81500000      -6.19000000      -2.72330000
