19
Properties=species:S:1:pos:R:3 gdb_42056=T pbc="F F F"
C        0.12280000       1.52650000       0.16420000
C        1.63690000       1.72060000      -0.20620000
C        1.90490000       2.77140000      -1.26230000
C        1.41160000       2.69480000      -2.51230000
C        0.55420000       1.60770000      -2.82010000
C       -0.16480000       0.64610000      -2.68820000
C       -0.97250000      -0.46970000      -2.21910000
C       -0.79390000      -0.72390000      -0.72620000
C       -0.33150000       0.08160000       0.23500000
H       -0.05310000       1.98180000       1.14450000
H       -0.49450000       2.07910000      -0.54360000
H        2.20810000       1.95570000       0.69630000
H        2.02150000       0.76270000      -0.57630000
H        2.54850000       3.60770000      -1.00170000
H        1.63650000       3.45210000      -3.25630000
H       -2.03780000      -0.30670000      -2.44540000
H       -0.70950000      -1.39050000      -2.75800000
H       -1.09450000      -1.72790000      -0.43150000
H       -0.27860000      -0.36160000       1.22860000
