20
Properties=species:S:1:pos:R:3 gdb_10915=T pbc="F F F"
C       -0.13730000       1.59190000       0.05340000
C        0.03430000       0.07830000       0.02940000
C        1.13250000      -0.54740000      -0.91800000
O        2.01740000       0.32940000      -1.58870000
C        1.76370000      -1.23880000       0.27890000
C        2.15050000      -0.21780000       1.31640000
C        0.70890000      -0.63140000       1.21890000
C       -0.04010000      -1.27190000       2.35280000
H        0.81610000       2.10640000       0.19600000
H       -0.56990000       1.95390000      -0.88710000
H       -0.81260000       1.89640000       0.86040000
H       -0.93130000      -0.39610000      -0.18100000
H        0.68800000      -1.26230000      -1.62280000
H        1.53450000       0.75070000      -2.30710000
H        2.18330000      -2.23790000       0.27330000
H        2.68250000      -0.62230000       2.17230000
H        2.49050000       0.76600000       1.00980000
H       -0.47800000      -0.51840000       3.01900000
H       -0.85850000      -1.90260000       1.98560000
H        0.62000000      -1.90030000       2.96010000
