19
Properties=species:S:1:pos:R:3 gdb_7147=T pbc="F F F"
C        0.31160000       1.36740000      -0.00890000
C        0.31830000      -0.14850000       0.01900000
O        0.54960000      -0.61060000      -1.32880000
C        0.60490000      -1.94340000      -1.49540000
O        0.48900000      -2.74430000      -0.60020000
C        0.79080000      -2.31300000      -2.96850000
N        1.16520000      -3.69120000      -3.20090000
C        2.54270000      -3.99330000      -2.81500000
H        1.26850000       1.75550000      -0.36900000
H       -0.47990000       1.74310000      -0.66350000
H        0.13910000       1.75650000       0.99900000
H        1.10630000      -0.54470000       0.66700000
H       -0.63310000      -0.55740000       0.37400000
H       -0.16100000      -2.09300000      -3.47120000
H        1.53110000      -1.63980000      -3.41360000
H        0.53970000      -4.28350000      -2.66340000
H        3.22960000      -3.43080000      -3.45780000
H        2.78150000      -3.75850000      -1.76580000
H        2.73500000      -5.05750000      -2.97840000
