19
Properties=species:S:1:pos:R:3 gdb_103697=T pbc="F F F"
C       -0.12470000       1.81290000       0.32020000
C       -0.10630000       0.31940000       0.07430000
C       -1.38140000      -0.18490000      -0.62510000
O       -1.21740000      -1.42160000      -1.28930000
N        1.15840000      -0.28200000      -0.34280000
C        0.63840000      -0.60890000       1.00680000
C        1.47270000      -0.14260000       2.18850000
C        0.04680000      -1.91420000       1.21830000
N       -0.43840000      -2.94910000       1.40790000
H        0.78120000       2.16080000       0.81630000
H       -0.20430000       2.34190000      -0.63540000
H       -0.98730000       2.09460000       0.93420000
H       -2.21320000      -0.21160000       0.09230000
H       -1.64260000       0.54590000      -1.39870000
H       -1.35910000      -2.13660000      -0.65810000
H        0.94050000      -1.04090000      -0.99080000
H        1.98500000       0.78750000       1.94370000
H        0.85030000       0.01060000       3.07510000
H        2.23270000      -0.89150000       2.42950000
