19
Properties=species:S:1:pos:R:3 gdb_72812=T pbc="F F F"
C       -0.32210000       1.56590000       0.27620000
C        0.11990000       0.13560000       0.05710000
C       -1.01200000      -0.94460000       0.10560000
C       -0.41170000      -1.49460000       1.42960000
C        0.85190000      -0.60890000       1.20380000
C        1.98030000      -1.33590000       0.48440000
O        2.78740000      -2.08730000       0.96460000
C        1.89070000      -0.95230000      -0.99910000
O        0.95600000       0.10100000      -1.10500000
H        0.54360000       2.21850000       0.42310000
H       -0.87830000       1.92410000      -0.59600000
H       -0.97250000       1.64230000       1.15280000
H       -2.03440000      -0.56360000       0.15340000
H       -0.94350000      -1.64530000      -0.73010000
H       -0.96860000      -1.18200000       2.31530000
H       -0.23790000      -2.57080000       1.49360000
H        1.23650000      -0.04850000       2.05860000
H        2.86440000      -0.62450000      -1.37780000
H        1.58940000      -1.84060000      -1.57830000
