15
Properties=species:S:1:pos:R:3 gdb_54368=T pbc="F F F"
N        0.09730000       1.20180000       0.48390000
C       -0.01730000      -0.01460000      -0.13130000
O        0.89560000      -0.53770000      -0.74760000
C       -1.32450000      -0.67980000       0.01500000
C       -1.53090000      -2.20470000       0.19520000
C       -2.89970000      -1.90450000       0.85280000
C       -2.71320000      -0.44280000       0.66570000
N       -3.40370000      -1.24570000      -0.40470000
C       -2.03630000      -1.52230000      -1.02990000
H        0.93560000       1.73200000       0.30750000
H       -0.70740000       1.68920000       0.83810000
H       -0.75700000      -2.94380000       0.33840000
H       -3.54680000      -2.46990000       1.51180000
H       -3.18440000       0.41030000       1.14110000
H       -1.83100000      -1.64000000      -2.08540000
