16
Properties=species:S:1:pos:R:3 gdb_108298=T pbc="F F F"
O        0.00870000       1.49900000       0.03250000
C        0.10160000       0.09020000       0.13390000
C       -1.25800000      -0.54710000       0.03900000
C       -2.31920000      -0.40960000       1.15060000
N       -2.75940000      -1.81730000       0.91160000
C       -1.64020000      -2.04480000      -0.04180000
C       -2.10620000      -1.68890000      -1.46260000
O       -2.55440000      -2.22160000      -2.42170000
O       -1.83520000      -0.33860000      -1.29960000
H       -0.39190000       1.69450000      -0.82280000
H        0.75870000      -0.33620000      -0.63980000
H        0.54750000      -0.12520000       1.11030000
H       -1.86320000      -0.24130000       2.13270000
H       -3.09850000       0.33740000       0.98010000
H       -2.70490000      -2.40700000       1.73220000
H       -0.98720000      -2.90450000       0.10660000
