21
Properties=species:S:1:pos:R:3 gdb_107132=T pbc="F F F"
C       -0.23740000       1.49250000       0.19220000
C        0.10430000       0.00490000       0.03710000
C        0.75660000      -0.32240000      -1.26950000
O        1.53850000      -1.52700000      -1.36530000
C        2.13840000      -0.27720000      -1.74470000
C        1.67500000       0.12200000      -3.18810000
C        2.36430000       1.18870000      -3.98610000
C        0.74590000      -0.92170000      -3.74580000
C        0.23160000       0.04120000      -2.70170000
H        0.66130000       2.11340000       0.11980000
H       -0.93800000       1.82730000      -0.57920000
H       -0.70120000       1.68180000       1.16450000
H        0.77900000      -0.31720000       0.83770000
H       -0.80950000      -0.59650000       0.13700000
H        3.06940000      -0.00120000      -1.26080000
H        3.32230000       0.83340000      -4.38610000
H        1.74830000       1.50420000      -4.83420000
H        2.57000000       2.07770000      -3.37750000
H        0.39460000      -0.71920000      -4.75350000
H        0.87590000      -1.96900000      -3.50420000
H       -0.57400000       0.73920000      -2.89050000
