17
Properties=species:S:1:pos:R:3 gdb_67459=T pbc="F F F"
O       -0.01420000       1.41330000       0.01670000
C        0.01410000       0.03000000       0.00400000
C       -1.24950000      -0.86650000       0.08700000
C       -0.89720000      -1.50200000      -1.27260000
C        0.50030000      -0.79900000      -1.22510000
O        1.58650000      -1.61570000      -0.82600000
C        1.73680000      -1.60410000       0.60040000
C        0.55570000      -0.83520000       1.16830000
O       -0.66940000      -1.61230000       1.18360000
H        0.82750000       1.74480000      -0.31620000
H       -2.26340000      -0.52580000       0.29950000
H       -0.88820000      -2.59240000      -1.31200000
H       -1.51490000      -1.09970000      -2.08140000
H        0.78100000      -0.24730000      -2.12670000
H        1.76490000      -2.63480000       0.97090000
H        2.68380000      -1.11100000       0.86490000
H        0.74490000      -0.35400000       2.13230000
