18
Properties=species:S:1:pos:R:3 gdb_45304=T pbc="F F F"
O       -0.26960000      -0.03370000       0.28380000
C       -0.21730000       1.16080000       0.08910000
C       -1.29550000       2.04640000      -0.54090000
C       -0.81060000       3.49310000      -0.32280000
C       -1.39130000       4.17960000       0.89150000
C       -0.46260000       4.60770000       1.74290000
C        0.93630000       4.31540000       1.25980000
C        0.71120000       3.37880000       0.04350000
N        0.84530000       1.97380000       0.37670000
H       -1.37130000       1.78670000      -1.60190000
H       -2.26540000       1.83450000      -0.08550000
H       -0.96390000       4.09980000      -1.22190000
H       -2.46210000       4.29830000       1.01830000
H       -0.66020000       5.13020000       2.67230000
H        1.45440000       5.23630000       0.96060000
H        1.56390000       3.84000000       2.02310000
H        1.36710000       3.64550000      -0.79360000
H        1.69350000       1.57680000       0.74960000
