20
Properties=species:S:1:pos:R:3 gdb_82130=T pbc="F F F"
C       -0.70050000       1.50780000       0.20690000
C       -0.26130000       0.06660000       0.01430000
C        0.51760000      -0.39800000      -1.26690000
C        0.86140000       0.58270000      -2.39850000
C       -0.33730000       0.84450000      -3.28210000
O       -0.86510000       1.91550000      -3.43730000
C        1.62760000      -0.83220000      -0.31290000
C        2.07340000       0.26910000       0.56060000
N        0.83600000      -0.44440000       0.92480000
H        0.11030000       2.22750000       0.06700000
H       -1.48950000       1.76550000      -0.50630000
H       -1.09560000       1.64010000       1.21930000
H       -1.12340000      -0.58590000       0.17670000
H        0.02260000      -1.27300000      -1.70030000
H        1.23740000       1.53750000      -2.02440000
H        1.64220000       0.12520000      -3.02310000
H       -0.73260000      -0.06600000      -3.79310000
H        2.15890000      -1.77720000      -0.37260000
H        2.88670000       0.05840000       1.24820000
H        2.03480000       1.30020000       0.22180000
