19
Properties=species:S:1:pos:R:3 gdb_69502=T pbc="F F F"
C       -0.14140000       1.53860000       0.09200000
C        0.13740000       0.06740000      -0.03780000
O       -0.52540000      -0.79370000       0.91060000
C        0.90980000      -0.74440000       0.92400000
C        1.59940000      -1.88990000       0.20120000
C        1.14620000      -1.79080000      -1.26450000
O        2.10020000      -2.07690000      -2.24510000
C       -0.30950000      -1.94630000      -1.60320000
C        0.28410000      -0.55900000      -1.41200000
H        0.61610000       2.12430000      -0.43960000
H       -1.11880000       1.78700000      -0.33580000
H       -0.14310000       1.83830000       1.14290000
H        1.34360000      -0.33850000       1.83570000
H        2.68410000      -1.73900000       0.23000000
H        1.38200000      -2.86040000       0.66100000
H        2.06610000      -3.02210000      -2.42720000
H       -0.52560000      -2.22970000      -2.62810000
H       -1.00020000      -2.30650000      -0.85070000
H        0.38870000       0.09010000      -2.27280000
