19
Properties=species:S:1:pos:R:3 gdb_33992=T pbc="F F F"
C        0.04670000      -1.21830000      -0.43710000
C        0.04100000      -0.04160000      -0.18420000
C        0.01730000       1.35940000       0.13770000
C        0.26530000       2.34160000      -1.00110000
C        1.33050000       2.13290000       0.03610000
C        1.64950000       3.22210000       1.04420000
C        0.44640000       3.73360000       1.78820000
C       -0.71440000       3.08560000       1.86120000
C       -0.98670000       1.75170000       1.22320000
H        0.05610000      -2.25480000      -0.66570000
H        0.41890000       1.92970000      -1.99110000
H       -0.29820000       3.26860000      -0.96950000
H        2.18470000       1.54250000      -0.27900000
H        2.38250000       2.83870000       1.76930000
H        2.15440000       4.05560000       0.53570000
H        0.56300000       4.68360000       2.30340000
H       -1.53190000       3.51310000       2.43670000
H       -2.00160000       1.73360000       0.80430000
H       -0.98000000       0.97480000       2.00030000
