19
Properties=species:S:1:pos:R:3 gdb_37119=T pbc="F F F"
C        0.02240000       1.45520000      -0.08050000
C        1.34640000       0.74670000       0.02860000
C        2.02550000       0.53700000       1.36520000
C        0.88700000       0.04170000       2.30270000
C       -0.09250000      -0.73670000       1.37800000
C        0.02870000      -0.04590000       0.03660000
C        0.48220000      -0.74250000      -1.28800000
O        0.72800000       0.25970000      -2.28110000
C        1.73740000       0.01240000      -1.29570000
H       -0.30630000       2.01050000       0.79160000
H       -0.25060000       1.89960000      -1.02860000
H        2.78740000      -0.24610000       1.25910000
H        2.53380000       1.42180000       1.76370000
H        1.25930000      -0.56900000       3.13030000
H        0.37480000       0.89790000       2.75360000
H        0.24120000      -1.77740000       1.27460000
H       -1.10880000      -0.76880000       1.78590000
H        0.21800000      -1.73510000      -1.63580000
H        2.73480000      -0.22140000      -1.65110000
