19
Properties=species:S:1:pos:R:3 gdb_59840=T pbc="F F F"
C       -0.10250000       1.55700000      -0.14260000
C       -0.09890000       0.02800000      -0.16980000
O        1.05310000      -0.50290000       0.46640000
C       -1.40130000      -0.54720000       0.43400000
C       -1.48150000      -2.00080000       0.37380000
C       -1.54560000      -3.20000000       0.30820000
C       -1.61050000      -4.66080000       0.23570000
C       -2.73580000      -5.16270000      -0.55620000
C       -3.65430000      -5.58680000      -1.20270000
H        0.83350000       1.94050000      -0.55640000
H       -0.93470000       1.96640000      -0.72430000
H       -0.19870000       1.92780000       0.88590000
H       -0.02240000      -0.31760000      -1.20660000
H        1.03600000      -0.22610000       1.38960000
H       -1.48100000      -0.20880000       1.47800000
H       -2.25950000      -0.10700000      -0.09050000
H       -0.67240000      -5.04820000      -0.18560000
H       -1.67040000      -5.07820000       1.25060000
H       -4.46780000      -5.95690000      -1.77580000
