18
Properties=species:S:1:pos:R:3 gdb_62597=T pbc="F F F"
C        0.02750000       1.52720000       0.02540000
C        0.00630000      -0.00210000       0.01780000
O       -1.32670000      -0.49520000      -0.07640000
C        0.80880000      -0.63350000      -1.10410000
C        2.26220000      -0.81380000      -0.70340000
C        1.30830000      -1.97670000      -0.65580000
N        1.27690000      -1.98350000       0.86170000
C        2.20540000      -0.80700000       0.83660000
C        0.77690000      -0.61560000       1.18060000
H        1.05220000       1.90910000       0.02020000
H       -0.49780000       1.91430000      -0.85250000
H       -0.47290000       1.92010000       0.91880000
H       -1.83190000      -0.12850000       0.65680000
H        0.54760000      -0.47080000      -2.14170000
H        3.11380000      -0.61480000      -1.33770000
H        1.24860000      -2.90530000      -1.20570000
H        3.04400000      -0.72540000       1.51820000
H        0.45120000      -0.47070000       2.20590000
