17
Properties=species:S:1:pos:R:3 gdb_70765=T pbc="F F F"
C        0.00170000       1.47450000      -0.02900000
C        0.04050000      -0.02350000      -0.08710000
C        0.55530000      -0.97300000      -1.19190000
C        0.06540000      -1.96590000      -0.10740000
C        0.07750000      -3.39440000      -0.10880000
C        0.09350000      -4.59750000      -0.12280000
C        0.50410000      -0.99510000       1.05180000
O       -0.78420000      -1.01010000       1.72670000
C       -1.11240000      -1.00810000       0.30980000
H        1.00750000       1.90080000      -0.10680000
H       -0.60040000       1.88790000      -0.84510000
H       -0.43660000       1.80060000       0.91990000
H       -0.00100000      -0.97990000      -2.13350000
H        1.63180000      -0.96670000      -1.38400000
H        0.10420000      -5.65920000      -0.12750000
H        1.41540000      -1.00790000       1.64990000
H       -2.15970000      -1.03670000       0.00880000
