18
Properties=species:S:1:pos:R:3 gdb_16394=T pbc="F F F"
O        0.23180000       1.35980000       0.07350000
C        0.04380000      -0.04810000      -0.01430000
C       -1.39770000      -0.50960000      -0.25830000
C       -1.16510000      -1.98600000      -0.69580000
C       -0.51850000      -1.31230000      -1.94080000
C       -1.59430000      -0.20570000      -1.77770000
C        0.72410000      -0.65820000      -1.31020000
O        1.29550000       0.33730000      -2.12300000
H       -0.47460000       1.78790000      -0.42270000
H        0.46490000      -0.46030000       0.90620000
H       -2.13730000      -0.23400000       0.49470000
H       -0.53530000      -2.61770000      -0.06060000
H       -2.09740000      -2.50310000      -0.93080000
H       -0.37050000      -1.84130000      -2.88170000
H       -2.57950000      -0.51540000      -2.13180000
H       -1.35630000       0.78860000      -2.16780000
H        1.47970000      -1.41250000      -1.04940000
H        1.37820000       1.11730000      -1.55430000
