14
Properties=species:S:1:pos:R:3 gdb_21102=T pbc="F F F"
C       -0.00650000       1.43640000      -0.05150000
N       -0.02770000      -0.00530000       0.04970000
N       -0.24310000      -0.78880000      -1.05320000
N       -0.20840000      -2.02940000      -0.66480000
C        0.02610000      -2.08050000       0.67510000
N        0.14030000      -3.22330000       1.49990000
C        0.14150000      -0.78610000       1.13160000
O        0.37050000      -0.28580000       2.35580000
H        0.96350000       1.83280000       0.26130000
H       -0.18440000       1.68360000      -1.09820000
H       -0.78900000       1.88020000       0.57040000
H        0.89690000      -3.82610000       1.18980000
H       -0.70700000      -3.78310000       1.47150000
H        0.45260000      -1.05300000       2.94150000
