21
Properties=species:S:1:pos:R:3 gdb_78502=T pbc="F F F"
C       -0.01530000       1.62190000       0.01620000
C        0.09720000       0.10220000      -0.00690000
C        0.83100000      -0.62450000      -1.13230000
C        2.31670000      -0.76370000      -0.72010000
O        3.29440000      -1.07110000      -1.64670000
C        2.49520000      -0.09720000       0.63900000
C        1.07470000      -0.65370000       0.95020000
C        1.29400000      -1.73190000      -0.19760000
C        1.18440000      -3.21880000      -0.25390000
H        0.95110000       2.11080000      -0.13570000
H       -0.68650000       1.97010000      -0.77720000
H       -0.42410000       1.97260000       0.97080000
H       -0.90070000      -0.33920000       0.10690000
H        0.55260000      -0.73000000      -2.17510000
H        3.40890000      -0.31460000      -2.23240000
H        3.25770000      -0.61950000       1.22450000
H        2.66040000       0.98400000       0.70570000
H        0.78810000      -0.87170000       1.97760000
H        0.15820000      -3.56060000      -0.07570000
H        1.49290000      -3.58280000      -1.23950000
H        1.82910000      -3.69880000       0.49170000
