20
Properties=species:S:1:pos:R:3 gdb_13400=T pbc="F F F"
O       -0.07280000       1.50220000       0.14800000
C        0.05820000       0.09220000       0.03460000
C       -1.34330000      -0.50380000      -0.00790000
C       -1.36860000      -2.03790000      -0.07430000
C       -2.79980000      -2.62940000       0.05580000
C       -2.83130000      -3.87910000      -0.85850000
C       -1.67790000      -3.63090000      -1.80210000
C       -0.88940000      -2.64480000      -1.37940000
H        0.80870000       1.88620000       0.15370000
H        0.61710000      -0.17930000      -0.87510000
H        0.61190000      -0.32620000       0.89200000
H       -1.87760000      -0.16850000       0.88970000
H       -1.88050000      -0.08610000      -0.86810000
H       -0.73600000      -2.41780000       0.74500000
H       -3.07010000      -2.84930000       1.09200000
H       -3.51910000      -1.89100000      -0.31620000
H       -2.67090000      -4.80660000      -0.29010000
H       -3.79060000      -4.00020000      -1.37430000
H       -1.51070000      -4.22770000      -2.69240000
H        0.01890000      -2.32130000      -1.87660000
