20
Properties=species:S:1:pos:R:3 gdb_69726=T pbc="F F F"
C        0.06190000       1.47670000       0.01800000
C       -0.06830000      -0.02500000       0.00000000
C       -0.64320000      -0.78660000       1.14360000
N        0.81080000      -0.83800000       0.87540000
C        1.19230000      -1.90660000      -0.06570000
C        0.03780000      -2.30510000      -1.05510000
C        1.09020000      -2.51250000      -2.16590000
C        1.54980000      -1.23880000      -1.43030000
C        0.04530000      -0.76860000      -1.32670000
H        0.92230000       1.80300000      -0.57700000
H       -0.83390000       1.95280000      -0.39700000
H        0.20080000       1.84130000       1.03910000
H       -0.90610000      -0.25190000       2.05260000
H       -1.24240000      -1.67260000       0.95750000
H        1.83680000      -2.67410000       0.36440000
H       -0.83090000      -2.93230000      -0.85290000
H        1.73300000      -3.39290000      -2.07610000
H        0.74310000      -2.38700000      -3.19490000
H        2.41800000      -0.61130000      -1.63680000
H       -0.45990000      -0.36990000      -2.20790000
