21
Properties=species:S:1:pos:R:3 gdb_104523=T pbc="F F F"
C        1.33060000      -1.04100000       1.24170000
C        0.29120000      -0.41660000       0.30460000
C        0.67920000      -0.43080000      -1.17200000
C        1.98520000       0.33120000      -1.48030000
C        2.00230000       1.70620000      -0.99810000
C        2.01530000       2.83700000      -0.59080000
C        0.59070000      -1.80420000      -1.89000000
C       -0.54150000      -1.15030000      -2.70340000
O       -0.41220000       0.08970000      -1.98100000
H        1.58850000      -2.06180000       0.93690000
H        2.25370000      -0.45390000       1.27030000
H        0.94430000      -1.09150000       2.26380000
H       -0.66340000      -0.94710000       0.39650000
H        0.10110000       0.62290000       0.59220000
H        2.82670000      -0.22450000      -1.04680000
H        2.13170000       0.32100000      -2.56670000
H        2.02430000       3.83950000      -0.24120000
H        1.47630000      -2.09370000      -2.45940000
H        0.28950000      -2.63620000      -1.25100000
H       -0.34520000      -1.02420000      -3.77540000
H       -1.53660000      -1.59400000      -2.57970000
