20
Properties=species:S:1:pos:R:3 gdb_91818=T pbc="F F F"
C       -0.18210000       1.51630000       0.07980000
C        0.03080000       0.01940000      -0.00330000
N       -0.75620000      -0.85940000       0.90070000
C        0.70450000      -0.70430000       1.10590000
C        1.56000000      -1.92730000       0.79390000
C        2.22360000      -1.85170000      -0.59430000
O        2.79740000      -3.10150000      -0.96300000
C        1.25600000      -1.35280000      -1.64500000
C        0.24860000      -0.52470000      -1.37550000
H        0.65390000       2.06050000      -0.37250000
H       -1.09480000       1.81150000      -0.45140000
H       -0.27480000       1.84310000       1.12100000
H       -1.25720000      -0.28110000       1.57400000
H        1.01750000      -0.10470000       1.95790000
H        2.33080000      -2.07330000       1.55650000
H        0.91140000      -2.81070000       0.81120000
H        3.08440000      -1.17040000      -0.55010000
H        2.07760000      -3.73970000      -1.02580000
H        1.43370000      -1.71720000      -2.65380000
H       -0.43210000      -0.19780000      -2.15880000
