16
Properties=species:S:1:pos:R:3 gdb_9296=T pbc="F F F"
O       -0.23400000       1.42450000      -0.11630000
C        0.00960000       0.03760000      -0.08100000
C       -1.27530000      -0.73330000       0.23040000
O       -2.29840000      -0.35960000      -0.69400000
C       -1.07070000      -2.24500000       0.25800000
O       -2.23650000      -2.90930000       0.74120000
C       -3.15240000      -3.31230000      -0.16420000
O       -4.19900000      -3.78990000       0.14820000
H       -1.08890000       1.53350000      -0.55260000
H        0.42690000      -0.32530000      -1.04000000
H        0.76430000      -0.14650000       0.69140000
H       -1.65560000      -0.41310000       1.20590000
H       -2.01000000      -0.61120000      -1.58060000
H       -0.80580000      -2.61590000      -0.74320000
H       -0.26040000      -2.51260000       0.94180000
H       -2.81230000      -3.17460000      -1.20870000
