17
Properties=species:S:1:pos:R:3 gdb_1560=T pbc="F F F"
C       -0.11260000       1.57030000       0.04300000
C       -0.03310000       0.06170000       0.20410000
O       -1.31720000      -0.48040000      -0.05160000
C       -1.38030000      -1.89040000      -0.09130000
C       -1.31420000      -2.56980000       1.27710000
C       -2.67430000      -2.22410000      -0.82950000
O       -3.23520000      -3.28600000      -0.76940000
H        0.86390000       2.02490000       0.23420000
H       -0.42760000       1.83260000      -0.97090000
H       -0.83540000       1.99280000       0.74650000
H        0.69920000      -0.36710000      -0.50060000
H        0.30420000      -0.19610000       1.21930000
H       -0.56440000      -2.28140000      -0.73050000
H       -1.55530000      -3.62920000       1.16160000
H       -0.32100000      -2.48140000       1.72370000
H       -2.04560000      -2.11880000       1.95400000
H       -3.04890000      -1.38360000      -1.45380000
