15
Properties=species:S:1:pos:R:3 gdb_17593=T pbc="F F F"
O        0.00190000       1.37560000       0.06700000
C        0.02210000      -0.00030000       0.00560000
C       -0.29220000      -0.82090000       1.22800000
C       -1.15510000      -1.02990000       0.01220000
O       -2.51570000      -0.82630000       0.08110000
C       -0.43140000      -1.80880000      -1.05280000
N       -0.25460000      -0.88590000      -2.21350000
C        0.69100000      -0.82710000      -1.05900000
H       -0.26690000       1.69610000      -0.80260000
H        0.38170000      -1.58900000       1.60020000
H       -0.79210000      -0.24450000       2.00070000
H       -2.80290000      -0.52210000      -0.78850000
H       -0.36160000      -2.88300000      -1.18230000
H        0.20650000      -1.41770000      -2.95410000
H        1.74550000      -1.04010000      -1.19400000
