18
Properties=species:S:1:pos:R:3 gdb_66087=T pbc="F F F"
C       -0.09620000       1.63120000       0.29660000
C        0.00790000       0.12470000       0.10800000
C        0.76880000      -0.36690000      -1.18150000
C        1.83300000      -1.02300000      -0.25900000
N        1.05880000      -0.55450000       0.88850000
C        1.20810000      -0.82820000       2.20640000
O        2.11930000      -1.48290000       2.66720000
C       -1.34130000      -0.57130000       0.25580000
O       -2.40150000      -0.00670000       0.29960000
H        0.87980000       2.10220000       0.15540000
H       -0.80460000       2.04770000      -0.42400000
H       -0.46300000       1.87670000       1.29700000
H        0.20840000      -1.06970000      -1.80040000
H        1.12470000       0.45340000      -1.80470000
H        1.90800000      -2.11270000      -0.31980000
H        2.84040000      -0.59910000      -0.31220000
H        0.40020000      -0.37970000       2.82090000
H       -1.26290000      -1.68170000       0.31090000
