17
Properties=species:S:1:pos:R:3 gdb_33751=T pbc="F F F"
C        0.07940000      -1.14030000      -0.02510000
C        0.02420000       0.06030000       0.00750000
C       -0.08400000       1.48570000       0.02730000
C       -0.63890000       2.43430000       1.13330000
C        0.01460000       3.29180000       0.02290000
O        1.14900000       2.33250000      -0.00370000
C       -0.69010000       2.43370000      -1.03210000
C       -0.66520000       2.40170000      -2.51160000
C       -1.99100000       2.47620000      -1.75190000
H        0.13680000      -2.20080000      -0.04840000
H       -1.72270000       2.48310000       1.25840000
H       -0.08730000       2.39890000       2.07290000
H        0.25530000       4.35340000       0.01450000
H       -0.33360000       3.28660000      -3.04480000
H       -0.41590000       1.46480000      -2.99910000
H       -2.61610000       1.58880000      -1.74050000
H       -2.54170000       3.41110000      -1.77860000
