18
Properties=species:S:1:pos:R:3 gdb_120804=T pbc="F F F"
C        0.10780000       1.32610000       0.37790000
O        0.00070000      -0.07570000       0.28160000
C       -1.25420000      -0.49800000      -0.19600000
C       -1.23350000      -2.00350000      -0.26110000
O       -1.70290000      -2.73650000       0.87690000
C       -2.43230000      -2.85030000      -0.33820000
C       -3.84990000      -2.29370000      -0.35580000
C       -4.82370000      -3.25700000       0.15900000
N       -5.58890000      -4.02660000       0.55440000
H        1.11140000       1.55010000       0.74550000
H       -0.03190000       1.81340000      -0.60010000
H       -0.63050000       1.74420000       1.07970000
H       -2.06250000      -0.15120000       0.46620000
H       -1.44420000      -0.08470000      -1.20360000
H       -0.31340000      -2.39730000      -0.69450000
H       -2.33750000      -3.81760000      -0.83310000
H       -3.90870000      -1.38060000       0.24210000
H       -4.13120000      -2.03530000      -1.38400000
