21
Properties=species:S:1:pos:R:3 gdb_38855=T pbc="F F F"
C       -0.04010000       1.53330000       0.06000000
C        1.50430000       1.44740000      -0.04460000
C        2.10830000       1.16130000       1.34600000
C        1.75310000      -0.29270000       1.70970000
C        0.26580000      -0.57550000       1.42650000
C       -0.04880000      -0.01660000       0.02320000
C        1.30070000       0.07270000      -0.76420000
C        2.33190000      -1.00860000      -0.48950000
O        2.55010000      -1.17490000       0.91380000
H       -0.46280000       2.02280000       0.94480000
H       -0.48680000       1.96550000      -0.83970000
H        2.03140000       2.24200000      -0.57800000
H        3.19910000       1.25280000       1.33960000
H        1.72010000       1.86770000       2.09000000
H        2.02070000      -0.52870000       2.74270000
H        0.11110000      -1.65810000       1.47440000
H       -0.38170000      -0.11360000       2.18180000
H       -0.89650000      -0.51780000      -0.45010000
H        1.13690000       0.19670000      -1.83770000
H        2.00360000      -1.97060000      -0.91070000
H        3.29070000      -0.75750000      -0.96710000
