16
Properties=species:S:1:pos:R:3 gdb_125323=T pbc="F F F"
C       -0.02560000       1.53030000       0.07010000
C        0.00630000       0.03480000      -0.00150000
C       -0.02140000      -0.76330000      -1.11940000
N        0.02650000      -2.05890000      -0.69110000
N        0.08460000      -2.14890000       0.66260000
C        0.07240000      -0.89290000       1.07610000
C        0.01850000      -3.21400000      -1.52820000
N        0.07670000      -4.36220000      -0.82040000
O       -0.03520000      -3.10290000      -2.73200000
H        0.86820000       1.92970000       0.56220000
H       -0.07780000       1.97000000      -0.92920000
H       -0.89260000       1.88860000       0.63610000
H       -0.07010000      -0.54200000      -2.17240000
H        0.11110000      -0.67880000       2.13550000
H        0.11500000      -4.32840000       0.18530000
H        0.07190000      -5.23050000      -1.32360000
