25
Properties=species:S:1:pos:R:3 gdb_90432=T pbc="F F F"
C       -0.01780000       1.61080000      -0.11700000
C        0.02410000       0.09200000      -0.00150000
C        0.84850000      -0.77020000      -1.00250000
C        1.18700000      -1.76170000       0.15410000
C        2.61050000      -1.69810000       0.75680000
C        3.83040000      -1.64220000      -0.15430000
C        2.17680000      -0.44460000       1.60980000
C        2.88000000       0.88470000       1.34690000
C        0.68340000      -0.67960000       1.17440000
H        0.97600000       2.05620000      -0.19410000
H       -0.58120000       1.90880000      -1.00910000
H       -0.51770000       2.05830000       0.74990000
H       -1.01140000      -0.27150000      -0.03550000
H        0.29610000      -1.18540000      -1.84930000
H        1.72490000      -0.25040000      -1.40070000
H        0.71980000      -2.74450000       0.06480000
H        2.73440000      -2.54990000       1.43540000
H        3.78580000      -0.81610000      -0.87010000
H        4.75190000      -1.52260000       0.42650000
H        3.92310000      -2.56990000      -0.73050000
H        2.27790000      -0.65710000       2.67910000
H        2.91300000       1.15020000       0.28710000
H        2.38840000       1.70490000       1.88040000
H        3.91680000       0.83870000       1.69980000
H        0.02580000      -0.92190000       2.01250000
