12
Properties=species:S:1:pos:R:3 gdb_21897=T pbc="F F F"
O        0.11500000       1.32280000       0.06270000
C        0.07830000      -0.01930000       0.05100000
N        0.08010000      -0.71260000      -1.07420000
N        0.03670000      -2.00900000      -0.64960000
C        0.00850000      -2.13420000       0.68280000
C        0.03420000      -0.84640000       1.20900000
C        0.01860000      -0.46650000       2.61330000
O       -0.02010000      -1.25620000       3.53470000
H        0.14020000       1.62180000      -0.85560000
H        0.02940000      -2.73980000      -1.34070000
H       -0.02700000      -3.08900000       1.18250000
H        0.04540000       0.62830000       2.79480000
