20
Properties=species:S:1:pos:R:3 gdb_106325=T pbc="F F F"
C       -0.25620000       1.50840000       0.07290000
N        0.11090000       0.10320000       0.05080000
C        1.15740000      -0.37710000      -0.88700000
C        1.85120000      -1.12350000       0.26180000
C        2.38360000      -2.52140000       0.17120000
O        3.52890000      -2.60550000      -0.66850000
C        2.25970000      -0.13360000       1.31060000
O        2.81360000       1.09360000       0.92730000
C        0.79500000      -0.48690000       1.19060000
H        0.60030000       2.19630000       0.14570000
H       -0.81340000       1.75220000      -0.83850000
H       -0.92260000       1.68960000       0.92340000
H        0.75050000      -1.03750000      -1.66030000
H        1.75870000       0.40980000      -1.35570000
H        2.59380000      -2.90910000       1.18140000
H        1.64000000      -3.18560000      -0.28320000
H        4.17200000      -1.96700000      -0.34180000
H        2.74260000      -0.60140000       2.17310000
H        2.56600000       1.75190000       1.58480000
H        0.23080000      -0.91520000       2.01560000
