13
Properties=species:S:1:pos:R:3 gdb_45128=T pbc="F F F"
O       -0.07220000       0.19370000      -0.76940000
C       -0.05270000       1.21040000      -0.14750000
O       -1.17850000       1.68230000       0.43380000
C       -1.19590000       2.94770000       1.05130000
C       -0.61590000       3.10260000       2.43480000
C        0.08290000       3.69030000       1.23450000
O        1.28740000       3.11420000       0.78710000
C        1.28110000       1.98490000       0.04360000
O        2.29120000       1.56610000      -0.43090000
H       -2.09700000       3.48480000       0.77900000
H       -1.10360000       3.76960000       3.13610000
H       -0.16430000       2.21750000       2.87020000
H        0.10720000       4.76480000       1.09480000
