21
Properties=species:S:1:pos:R:3 gdb_39501=T pbc="F F F"
C       -0.01690000       1.41370000       0.10310000
C        1.27950000       0.63280000       0.05040000
C        2.23240000       0.57780000       1.23880000
O        1.65930000       0.10230000       2.43880000
C        1.80510000      -1.29010000       2.66070000
C        1.31580000      -2.20470000       1.53100000
C       -0.17640000      -2.08600000       1.21260000
O       -0.63100000      -0.75720000       1.02600000
C       -0.06490000      -0.07410000      -0.04360000
H       -0.31550000       1.77320000       1.08250000
H       -0.29670000       2.04940000      -0.72950000
H        1.81340000       0.68950000      -0.89650000
H        3.11660000      -0.02230000       0.97050000
H        2.59300000       1.59230000       1.45200000
H        2.86480000      -1.52250000       2.86250000
H        1.24250000      -1.49280000       3.57890000
H        1.91070000      -2.03290000       0.62780000
H        1.51680000      -3.24190000       1.82930000
H       -0.41470000      -2.70240000       0.32920000
H       -0.77040000      -2.46740000       2.05040000
H       -0.32010000      -0.49460000      -1.01940000
