18
Properties=species:S:1:pos:R:3 gdb_119818=T pbc="F F F"
C       -0.00320000       1.39500000      -0.01460000
O       -0.00280000      -0.01220000       0.00680000
C        0.63940000      -0.57790000      -1.11230000
C        0.59710000      -2.06400000      -1.01220000
C        0.04890000      -2.79230000      -0.03380000
N        0.20010000      -4.16830000      -0.27700000
C        0.87390000      -4.40800000      -1.45950000
O        1.14720000      -5.49030000      -1.92310000
C        1.18430000      -3.00990000      -2.03100000
H        1.01960000       1.80390000      -0.01470000
H       -0.53030000       1.79000000      -0.89740000
H       -0.51930000       1.73520000       0.88620000
H        0.15330000      -0.23940000      -2.04770000
H        1.68670000      -0.22430000      -1.17520000
H       -0.45850000      -2.44910000       0.85420000
H       -0.13010000      -4.90930000       0.31790000
H        0.73870000      -2.91880000      -3.02890000
H        2.26790000      -2.90380000      -2.16170000
