23
Properties=species:S:1:pos:R:3 gdb_102578=T pbc="F F F"
C       -0.36940000       0.23810000       0.17930000
O       -0.14670000      -1.10550000       0.54440000
C        0.89170000      -1.29050000       1.51310000
C        0.65700000      -2.69690000       2.06760000
O       -0.65100000      -2.81530000       2.58570000
C        2.28580000      -0.99070000       0.96780000
C        3.40220000      -2.01580000       0.89050000
C        2.80950000      -1.46400000      -0.37720000
C        2.02730000      -2.34410000      -1.32840000
H        0.50140000       0.67650000      -0.32720000
H       -1.21830000       0.25080000      -0.50900000
H       -0.61210000       0.85990000       1.05510000
H        0.70170000      -0.59480000       2.34700000
H        0.84280000      -3.45110000       1.28700000
H        1.35510000      -2.88670000       2.88830000
H       -1.22350000      -2.43760000       1.90610000
H        2.62760000       0.00550000       1.23390000
H        4.39750000      -1.71110000       1.19500000
H        3.16580000      -3.04560000       1.13560000
H        3.42090000      -0.72270000      -0.88670000
H        1.44620000      -3.10610000      -0.80440000
H        1.32600000      -1.75880000      -1.93070000
H        2.71160000      -2.85940000      -2.01210000
