20
Properties=species:S:1:pos:R:3 gdb_122479=T pbc="F F F"
O       -0.12320000       1.42580000      -0.44540000
C       -0.01500000       0.08630000       0.01300000
C       -1.39210000      -0.55590000      -0.08310000
C       -1.40590000      -2.00600000       0.41310000
C       -2.77200000      -2.63550000       0.28190000
N       -3.14420000      -3.13170000      -1.04590000
C       -2.97290000      -4.10480000       0.06250000
C       -1.88170000      -5.03620000      -0.02640000
C       -0.98170000      -5.83250000      -0.06680000
H        0.75000000       1.82680000      -0.41000000
H        0.70370000      -0.48740000      -0.59480000
H        0.34150000       0.05030000       1.05620000
H       -2.09820000       0.05280000       0.49590000
H       -1.72560000      -0.52280000      -1.12620000
H       -0.68870000      -2.60750000      -0.15500000
H       -1.09510000      -2.04940000       1.46560000
H       -3.55530000      -2.15280000       0.86720000
H       -4.13610000      -2.99500000      -1.22180000
H       -3.87990000      -4.52520000       0.49280000
H       -0.18530000      -6.53310000      -0.11550000
