14
Properties=species:S:1:pos:R:3 gdb_17702=T pbc="F F F"
O       -0.12760000       1.42370000       0.01280000
C        0.03650000       0.06500000      -0.02360000
C        0.08160000      -0.99810000       1.05170000
C       -1.01990000      -0.99580000      -0.04140000
C       -0.27840000      -1.86910000      -1.09050000
O        0.40700000      -2.92510000      -0.38260000
C        1.12120000      -1.86350000       0.29090000
C        0.92180000      -0.87990000      -0.91140000
H        0.63690000       1.81380000       0.45170000
H       -0.16190000      -0.95220000       2.10430000
H       -2.07020000      -0.93200000       0.20580000
H       -0.75630000      -2.18290000      -2.01660000
H        2.05600000      -2.17520000       0.75400000
H        1.66400000      -0.63420000      -1.66640000
