19
Properties=species:S:1:pos:R:3 gdb_96243=T pbc="F F F"
O        0.07750000       1.44400000       0.17640000
C        0.07550000       0.02930000       0.07570000
C        0.71160000      -0.59800000       1.32350000
O        1.16240000      -1.91680000       1.07610000
C        0.21110000      -2.93470000       1.25730000
C       -0.98990000      -2.93980000       0.34460000
C       -1.60800000      -1.93340000      -0.27460000
C       -1.35420000      -0.44780000      -0.20090000
O       -2.13960000       0.14130000       0.85870000
H       -0.70640000       1.67060000       0.69360000
H        0.70500000      -0.23520000      -0.78060000
H        1.59460000      -0.00510000       1.57760000
H        0.01450000      -0.56530000       2.17370000
H        0.75950000      -3.87270000       1.11420000
H       -0.15300000      -2.94400000       2.30270000
H       -1.41520000      -3.93490000       0.21540000
H       -2.47900000      -2.19360000      -0.87550000
H       -1.65800000       0.00700000      -1.15510000
H       -3.06410000      -0.07980000       0.71230000
