18
Properties=species:S:1:pos:R:3 gdb_66600=T pbc="F F F"
C       -0.01850000       1.57630000      -0.25490000
C        0.04480000       0.09480000      -0.03720000
C        0.58440000      -0.88840000      -1.00620000
C        0.75700000      -2.12780000      -0.11180000
C        1.39190000      -1.52470000       1.23060000
C        0.20270000      -0.52970000       1.36510000
C       -0.81610000      -1.44760000       1.50620000
C       -0.88610000      -1.95810000       0.10000000
N       -0.89730000      -0.77250000      -0.82130000
H        0.91240000       2.05690000       0.06490000
H       -0.18110000       1.80290000      -1.31280000
H       -0.84050000       2.01670000       0.31890000
H        1.08070000      -0.66290000      -1.94440000
H        1.19600000      -3.02520000      -0.55470000
H        1.47270000      -2.24700000       2.04530000
H        2.37140000      -1.07490000       1.03320000
H       -0.82230000      -2.16110000       2.32910000
H       -1.55060000      -2.77060000      -0.19090000
