17
Properties=species:S:1:pos:R:3 gdb_125224=T pbc="F F F"
C       -0.36330000       1.45330000       0.13480000
C       -0.09000000      -0.00290000      -0.05340000
C       -0.14020000      -0.81660000      -1.16750000
C        0.22230000      -2.10590000      -0.71010000
N        0.48840000      -2.09720000       0.59540000
N        0.28640000      -0.81950000       0.96640000
C        0.30320000      -3.34790000      -1.50970000
C        0.82070000      -4.60750000      -0.96010000
O       -0.57960000      -4.42960000      -1.15560000
H        0.51160000       1.98570000       0.52560000
H       -0.63040000       1.90920000      -0.82050000
H       -1.19290000       1.62590000       0.83000000
H       -0.40910000      -0.52220000      -2.16970000
H        0.43090000      -0.56720000       1.93010000
H        0.37670000      -3.18580000      -2.58480000
H        1.30350000      -5.32360000      -1.62490000
H        1.14770000      -4.62420000       0.07710000
