15
Properties=species:S:1:pos:R:3 gdb_7710=T pbc="F F F"
N       -0.08950000       1.33040000      -0.20450000
C       -0.03200000       0.07720000       0.01140000
C       -1.29480000      -0.74730000       0.10850000
C       -1.13220000      -1.90060000       1.09790000
N        0.06520000      -2.65220000       0.74840000
C        1.25170000      -2.03320000       0.45350000
O        2.33050000      -2.58980000       0.44040000
N        1.13430000      -0.67240000       0.14600000
H        0.84250000       1.74510000      -0.27690000
H       -2.11620000      -0.08720000       0.38760000
H       -1.51090000      -1.15750000      -0.88540000
H       -1.08080000      -1.51280000       2.12670000
H       -1.99310000      -2.57180000       1.04230000
H        0.18720000      -3.58170000       1.11870000
H        2.02500000      -0.22800000      -0.02530000
