19
Properties=species:S:1:pos:R:3 gdb_86346=T pbc="F F F"
O        0.16520000       1.57180000       0.17440000
C        0.11110000       0.16490000       0.08850000
C        0.24500000      -0.55800000       1.46200000
C       -1.30530000      -0.57180000       1.54370000
O       -1.81240000       0.63610000       2.11200000
C       -1.33890000      -0.42300000      -0.00270000
C       -2.43070000       0.37130000      -0.65550000
C       -2.80630000       0.14760000      -2.05710000
O       -3.62270000      -0.35190000      -0.99860000
H       -0.42030000       1.82520000       0.90070000
H        0.80710000      -0.12190000      -0.70290000
H        0.66120000      -1.56480000       1.36480000
H        0.78000000      -0.01580000       2.24680000
H       -1.79990000      -1.44580000       1.98210000
H       -1.62760000       0.62210000       3.05700000
H       -1.30200000      -1.42020000      -0.45210000
H       -2.62280000       1.35360000      -0.23150000
H       -3.23440000       0.96350000      -2.63780000
H       -2.28190000      -0.60860000      -2.64100000
