17
Properties=species:S:1:pos:R:3 gdb_96538=T pbc="F F F"
O       -0.00390000       1.36950000       0.23420000
C       -0.02060000      -0.01760000       0.02950000
C       -1.47570000      -0.53550000      -0.00290000
C       -1.55210000      -2.05340000      -0.24920000
O       -0.31600000      -2.67050000       0.12820000
C        0.59400000      -2.79600000      -0.90150000
O        0.85160000      -1.61130000      -1.68640000
C        0.72160000      -0.33770000      -1.27240000
O        1.14460000       0.55180000      -1.96890000
H        0.41830000       1.74090000      -0.55680000
H        0.50510000      -0.51780000       0.85260000
H       -1.92230000      -0.27240000       0.95970000
H       -2.02930000       0.01150000      -0.77250000
H       -2.32730000      -2.51910000       0.36370000
H       -1.77180000      -2.27950000      -1.30020000
H        1.53700000      -3.12140000      -0.45240000
H        0.26190000      -3.51720000      -1.66050000
