19
Properties=species:S:1:pos:R:3 gdb_64811=T pbc="F F F"
C       -0.08790000       1.72990000       0.24020000
C       -0.03390000       0.21720000       0.01850000
C        0.92580000      -0.20140000      -1.14580000
C        1.96070000      -0.58530000      -0.08210000
O        3.14050000      -0.78140000      -0.10460000
C        0.91690000      -0.50620000       1.04000000
C       -1.43030000      -0.35730000      -0.03940000
C       -2.16780000      -0.55940000      -1.29160000
O       -1.58180000      -1.66470000      -0.59420000
H        0.91980000       2.14970000       0.32480000
H       -0.59320000       2.23300000      -0.59100000
H       -0.62740000       1.97530000       1.16190000
H        0.56440000      -1.09800000      -1.66090000
H        1.21840000       0.55460000      -1.87850000
H        1.20570000       0.03290000       1.94590000
H        0.55860000      -1.50440000       1.31390000
H       -2.01810000      -0.19690000       0.86760000
H       -3.25610000      -0.53430000      -1.29260000
H       -1.69560000      -0.30740000      -2.24010000
