18
Properties=species:S:1:pos:R:3 gdb_32808=T pbc="F F F"
C       -0.03610000       1.49160000      -0.04850000
C       -0.01950000      -0.02570000      -0.01550000
O        0.66600000      -0.47370000      -1.18770000
C        0.78230000      -1.81160000      -1.33370000
C        1.40800000      -2.42650000      -2.39680000
N        2.06650000      -1.98750000      -3.56170000
N        1.27870000      -3.78090000      -2.11450000
C        0.61010000      -3.90190000      -0.94560000
N        0.29230000      -2.72070000      -0.44260000
H        0.98200000       1.89180000      -0.05560000
H       -0.55360000       1.85560000      -0.94090000
H       -0.55400000       1.87940000       0.83390000
H        0.49230000      -0.40330000       0.87780000
H       -1.03510000      -0.43900000      -0.00170000
H        2.86550000      -1.40130000      -3.34050000
H        1.45230000      -1.43530000      -4.15230000
H        1.63490000      -4.51510000      -2.70360000
H        0.37690000      -4.85650000      -0.49930000
