16
Properties=species:S:1:pos:R:3 gdb_13547=T pbc="F F F"
C        0.04290000       1.55440000      -0.24380000
C        0.00500000       0.06780000       0.01590000
N        1.27870000      -0.66920000      -0.02270000
C        0.53450000      -0.59370000       1.23940000
C        1.20320000       0.17880000       2.36580000
O        0.27540000       0.80490000       3.23320000
C        2.11370000      -0.71330000       3.11670000
N        2.78210000      -1.43720000       3.72060000
H        0.95750000       2.00820000       0.14330000
H        0.00930000       1.75010000      -1.32050000
H       -0.81490000       2.05070000       0.22060000
H       -0.85940000      -0.43480000      -0.41770000
H        1.17510000      -1.58370000      -0.45200000
H        0.01180000      -1.48760000       1.57930000
H        1.80430000       0.98280000       1.93470000
H       -0.23510000       0.11990000       3.68010000
