20
Properties=species:S:1:pos:R:3 gdb_63804=T pbc="F F F"
C       -0.14800000       1.57370000      -0.01010000
C        0.03080000       0.05550000      -0.01720000
O       -1.24390000      -0.58650000       0.00070000
C        0.90360000      -0.48930000      -1.18730000
C        1.65030000      -1.65170000      -0.54920000
C        2.56690000      -1.39580000       0.59250000
C        2.25550000      -0.07840000       1.28550000
C        0.76720000      -0.50840000       1.20030000
N        1.17060000      -1.93390000       0.82570000
H        0.80760000       2.10320000       0.03490000
H       -0.66190000       1.90120000      -0.92190000
H       -0.75790000       1.87670000       0.84590000
H       -1.73320000      -0.29530000      -0.77610000
H        0.26570000      -0.82670000      -2.00950000
H        1.58140000       0.27310000      -1.58590000
H        1.84210000      -2.54380000      -1.13670000
H        3.44650000      -2.00810000       0.76900000
H        2.60950000      -0.07620000       2.31840000
H        2.56970000       0.85420000       0.80530000
H        0.17670000      -0.45990000       2.11440000
