16
Properties=species:S:1:pos:R:3 gdb_20725=T pbc="F F F"
C        0.01860000       1.47940000      -0.02200000
C        0.02060000      -0.01410000       0.04840000
N       -0.02930000      -0.76800000      -1.05060000
N       -0.01010000      -2.03460000      -0.59930000
C        0.05080000      -2.13750000       0.76040000
C        0.08330000      -3.42720000       1.50740000
C        0.07180000      -0.83080000       1.20390000
O        0.13120000      -0.46010000       2.51850000
H        0.92410000       1.91320000       0.42120000
H       -0.02790000       1.79640000      -1.06600000
H       -0.84300000       1.91460000       0.50020000
H       -0.04060000      -2.78780000      -1.26420000
H        0.95690000      -4.03550000       1.24390000
H        0.13100000      -3.22140000       2.57890000
H       -0.81080000      -4.03460000       1.32230000
H        0.13260000       0.50030000       2.56480000
