21
Properties=species:S:1:pos:R:3 gdb_107398=T pbc="F F F"
C       -0.02910000       1.39560000       0.11240000
C        0.02030000      -0.10570000      -0.10520000
C        0.90540000      -0.58520000      -1.27760000
C        1.46500000      -1.91160000      -0.77250000
C        2.60480000      -1.84430000       0.23180000
C        1.18130000      -1.95040000       0.70190000
C        0.63950000      -3.12290000       1.47550000
O       -0.77390000      -3.18370000       1.40240000
O        0.56950000      -0.72980000       1.07410000
H        0.97880000       1.79350000       0.26650000
H       -0.47040000       1.89100000      -0.75830000
H       -0.63390000       1.64230000       0.98950000
H       -0.99990000      -0.49380000      -0.25230000
H        0.31830000      -0.71020000      -2.19130000
H        1.69900000       0.14040000      -1.49120000
H        1.36390000      -2.80020000      -1.38480000
H        3.24310000      -2.71770000       0.32590000
H        3.10600000      -0.89290000       0.37730000
H        1.02640000      -4.05780000       1.05750000
H        0.97920000      -3.06200000       2.52230000
H       -1.08240000      -2.31910000       1.69810000
