16
Properties=species:S:1:pos:R:3 gdb_74233=T pbc="F F F"
C        0.08650000       1.54430000       0.05410000
C       -0.04440000       0.06040000       0.01140000
C       -1.12520000      -0.70720000      -0.16540000
C       -0.72060000      -2.16740000      -0.11810000
C       -1.09300000      -2.94880000      -1.28850000
C       -1.41040000      -3.57830000      -2.26110000
C        0.82690000      -2.08870000       0.08570000
O        1.61700000      -2.99410000       0.16540000
N        1.10320000      -0.74040000       0.18140000
H        0.77080000       1.90330000      -0.72420000
H       -0.88550000       2.01610000      -0.09990000
H        0.48480000       1.88110000       1.01860000
H       -2.13380000      -0.36080000      -0.32750000
H       -1.11950000      -2.65990000       0.78160000
H       -1.68300000      -4.14330000      -3.11760000
H        2.04270000      -0.39460000       0.29020000
