21
Properties=species:S:1:pos:R:3 gdb_75508=T pbc="F F F"
C        0.04580000       1.53500000       0.02250000
C        0.01870000       0.03220000      -0.04410000
C       -0.06800000      -0.64610000      -1.19250000
C       -0.06490000      -2.15360000      -1.27340000
C        0.73230000      -2.76820000      -0.11100000
C        0.23860000      -2.23130000       1.23140000
O        1.28780000      -2.14800000       2.22890000
C        1.30460000      -0.70730000       2.16050000
C        0.03650000      -0.69870000       1.26670000
H        0.95290000       1.89490000       0.52560000
H        0.01260000       1.98340000      -0.97410000
H       -0.80310000       1.92310000       0.60070000
H       -0.13380000      -0.09670000      -2.12940000
H       -1.09580000      -2.53890000      -1.27680000
H        0.36910000      -2.47350000      -2.22720000
H        0.68470000      -3.86180000      -0.13100000
H        1.78530000      -2.48700000      -0.21930000
H       -0.60780000      -2.82060000       1.60430000
H        1.21520000      -0.24860000       3.15160000
H        2.21240000      -0.32890000       1.67060000
H       -0.84410000      -0.41850000       1.85610000
