18
Properties=species:S:1:pos:R:3 gdb_32769=T pbc="F F F"
C       -0.18980000       1.36390000       0.09040000
O       -0.25720000      -0.03240000       0.25560000
C        0.87660000      -0.55790000       0.93640000
C        0.75590000      -2.03640000       0.99140000
C        1.02520000      -2.93820000       1.99770000
O        1.48880000      -2.57190000       3.23210000
C        0.76790000      -4.24810000       1.50640000
C        0.33840000      -4.10500000       0.20370000
N        0.35830000      -2.77640000      -0.10480000
H        0.69970000       1.66680000      -0.48540000
H       -1.08570000       1.67340000      -0.45370000
H       -0.16340000       1.88880000       1.05820000
H        1.79040000      -0.23560000       0.40280000
H        0.94870000      -0.16310000       1.96120000
H        1.48890000      -3.34860000       3.79810000
H        0.89130000      -5.17790000       2.04160000
H        0.01810000      -4.84260000      -0.51420000
H       -0.02650000      -2.35390000      -0.93160000
