12
Properties=species:S:1:pos:R:3 gdb_129150=T pbc="F F F"
N        0.25500000       1.10860000       1.06430000
C       -0.56550000       0.41160000       0.53410000
N        2.53180000      -1.09700000      -0.17950000
N        2.93660000      -2.11630000      -0.23910000
O       -0.36980000      -2.41590000       0.51770000
C       -1.36360000      -1.84920000       0.12580000
C       -1.53810000      -0.37730000       0.07280000
C       -2.76640000       0.20830000      -0.49390000
O       -3.68080000      -0.45440000      -0.92710000
H        1.08700000       1.45870000       0.59950000
H       -2.25400000      -2.39010000      -0.24370000
H       -2.80160000       1.31750000      -0.49520000
