16
Properties=species:S:1:pos:R:3 gdb_42479=T pbc="F F F"
O        0.03900000      -0.05140000       0.08840000
C        0.19080000       1.14490000      -0.04760000
N        1.34490000       1.82700000       0.11680000
C        2.59380000       1.18030000       0.47010000
C        3.76180000       1.89670000      -0.18490000
C        3.72340000       2.38750000      -1.58300000
N        3.55800000       3.32650000      -0.45740000
H        1.38430000       2.82980000      -0.01810000
H        4.40460000       3.86240000      -0.29500000
C       -0.93800000       2.02150000      -0.43440000
N       -1.84100000       2.67520000      -0.73760000
H        2.72900000       1.18570000       1.56060000
H        2.54140000       0.13460000       0.15510000
H        4.73050000       1.58610000       0.19950000
H        4.65390000       2.40380000      -2.14280000
H        2.83150000       2.24280000      -2.18530000
