17
Properties=species:S:1:pos:R:3 gdb_1524=T pbc="F F F"
C        0.05210000       1.52610000      -0.11830000
C       -0.00030000       0.01430000      -0.00920000
O        0.66200000      -0.52990000      -1.16760000
C        0.71200000      -1.87600000      -1.23910000
O        0.24190000      -2.60750000      -0.40360000
C        1.43060000      -2.32120000      -2.49750000
C        1.51330000      -3.84010000      -2.62560000
H        1.08660000       1.88010000      -0.14770000
H       -0.45430000       1.87030000      -1.02440000
H       -0.44260000       1.97860000       0.74630000
H        0.50350000      -0.34970000       0.89180000
H       -1.02880000      -0.35940000       0.02020000
H        0.91160000      -1.87290000      -3.35310000
H        2.42690000      -1.86320000      -2.49120000
H        2.04560000      -4.27600000      -1.77650000
H        0.51560000      -4.28580000      -2.64760000
H        2.03780000      -4.11900000      -3.54370000
