18
Properties=species:S:1:pos:R:3 gdb_133831=T pbc="F F F"
C        7.12910000      -0.23950000       1.54330000
C        5.95850000      -0.60520000       0.68940000
C        5.37670000       0.39410000      -0.42080000
N        4.68670000       0.04560000       0.85310000
C        3.70680000      -0.88340000       0.16110000
C        4.26430000      -2.28600000       0.40880000
C        5.69620000      -1.93730000      -0.02530000
C        5.46060000      -1.10910000      -1.30030000
C        4.22190000      -0.40710000      -1.24440000
H        7.10320000       0.82640000       1.78700000
H        8.07220000      -0.45970000       1.03280000
H        7.11450000      -0.80100000       2.48470000
H        5.82210000       1.35290000      -0.65170000
H        2.67380000      -0.68100000       0.43300000
H        3.79560000      -3.03650000      -0.23510000
H        4.19800000      -2.60480000       1.45420000
H        6.48050000      -2.68840000      -0.00180000
H        6.23090000      -0.97090000      -2.05150000
