17
Properties=species:S:1:pos:R:3 gdb_45540=T pbc="F F F"
O        0.02320000       0.00750000      -0.24080000
C        0.00590000       1.20420000      -0.08970000
C       -1.26140000       2.07060000       0.12820000
C       -0.75900000       3.49210000      -0.09600000
O       -1.09460000       4.46110000       0.88920000
C       -0.07290000       5.46030000       0.82020000
C        1.25450000       4.73960000       0.41150000
C        0.74200000       3.38600000       0.03350000
C        1.17620000       2.12340000      -0.00550000
H       -2.08220000       1.75210000      -0.51610000
H       -1.57590000       1.95640000       1.17120000
H       -1.04210000       3.86170000      -1.09760000
H       -0.33750000       6.22230000       0.07300000
H       -0.01490000       5.94240000       1.79840000
H        1.74840000       5.25090000      -0.42160000
H        1.97380000       4.68430000       1.23270000
H        2.19180000       1.75930000       0.08560000
