17
Properties=species:S:1:pos:R:3 gdb_124978=T pbc="F F F"
C        0.17320000       1.48630000      -0.23670000
C        0.09290000      -0.00420000      -0.15880000
C       -0.01960000      -0.97490000      -1.14710000
C       -0.03000000      -0.75270000      -2.63570000
C        1.35960000      -0.32650000      -3.07740000
O        1.65470000       0.79220000      -3.41540000
C       -0.07860000      -2.19750000      -0.43890000
N       -0.01810000      -2.02100000       0.87570000
N        0.08440000      -0.68360000       1.01550000
H        0.81540000       1.89310000       0.55120000
H        0.58580000       1.79550000      -1.19950000
H       -0.81480000       1.95060000      -0.13120000
H       -0.29480000      -1.68770000      -3.14270000
H       -0.74220000       0.02100000      -2.93720000
H        2.12680000      -1.13100000      -3.01610000
H       -0.16770000      -3.19580000      -0.84400000
H        0.14780000      -0.29550000       1.94220000
