18
Properties=species:S:1:pos:R:3 gdb_73228=T pbc="F F F"
C       -0.23370000       1.46200000       0.00900000
C        0.02360000      -0.02390000       0.03080000
O       -1.17140000      -0.79640000       0.33250000
C       -0.48040000      -1.54320000       1.35530000
C        0.81490000      -0.72930000       1.16060000
C        1.99570000      -1.45460000       0.49410000
N        1.65280000      -1.41640000      -0.91880000
C        0.65850000      -0.54540000      -1.27550000
O        0.32780000      -0.25470000      -2.40350000
H        0.70500000       2.01760000      -0.09020000
H       -0.86150000       1.70350000      -0.85330000
H       -0.74030000       1.77800000       0.92460000
H       -0.96870000      -1.43880000       2.33080000
H       -0.39990000      -2.60950000       1.10710000
H        1.11650000      -0.12260000       2.01370000
H        2.94510000      -0.93870000       0.69210000
H        2.09800000      -2.48550000       0.85380000
H        2.22680000      -1.83920000      -1.63180000
