15
Properties=species:S:1:pos:R:3 gdb_75080=T pbc="F F F"
C       -0.02830000       1.49000000       0.00550000
C       -0.01140000      -0.00340000      -0.02300000
N       -0.03110000      -0.69020000      -1.09820000
C       -0.00450000      -2.09830000      -0.72490000
C        0.03470000      -2.15190000       0.80080000
O        0.06600000      -3.09250000       1.53730000
N        0.02880000      -0.76710000       1.17390000
C        0.05690000      -0.25790000       2.47680000
O        0.09020000      -0.92090000       3.47520000
H        0.86410000       1.89220000       0.49660000
H       -0.05880000       1.84570000      -1.02430000
H       -0.90350000       1.87140000       0.54190000
H       -0.88810000      -2.62510000      -1.10220000
H        0.87110000      -2.60390000      -1.14690000
H        0.04380000       0.84660000       2.48130000
