21
Properties=species:S:1:pos:R:3 gdb_70094=T pbc="F F F"
C       -0.04620000       1.51190000       0.04320000
C        0.03980000       0.00520000      -0.01210000
C       -0.56030000      -0.80700000       1.11240000
C        0.94820000      -0.79040000       0.91900000
C        1.49470000      -1.90820000       0.09760000
C        1.00690000      -1.87810000      -1.14660000
C        0.11430000      -0.70400000      -1.36040000
C       -1.07540000      -0.78230000      -2.29660000
C        0.12330000       0.03880000      -2.68320000
H        0.79080000       1.98370000      -0.48250000
H       -0.97600000       1.88120000      -0.40750000
H       -0.02940000       1.86230000       1.07980000
H       -0.96260000      -0.25080000       1.95380000
H       -1.08720000      -1.72690000       0.88040000
H        1.56430000      -0.30520000       1.66930000
H        2.16720000      -2.66030000       0.49300000
H        1.19650000      -2.60990000      -1.92430000
H       -1.25550000      -1.71710000      -2.81700000
H       -1.97790000      -0.25780000      -1.99850000
H        0.02850000       1.11870000      -2.66360000
H        0.77780000      -0.33470000      -3.46380000
