21
Properties=species:S:1:pos:R:3 gdb_112737=T pbc="F F F"
C        0.02420000       1.60650000      -0.07980000
C        0.08040000       0.09280000       0.05380000
C        1.03140000      -0.72800000      -0.87280000
C        1.42430000      -1.62520000       0.33900000
C        2.87630000      -2.01320000       0.52260000
O        3.21560000      -2.92230000      -0.51480000
C        0.81680000      -0.54420000       1.23970000
C        1.39990000       0.11070000       2.41530000
O        0.26480000      -0.76020000       2.52460000
H        1.02760000       2.04480000      -0.04230000
H       -0.43260000       1.89970000      -1.03100000
H       -0.57070000       2.05400000       0.72410000
H       -0.93200000      -0.32630000       0.01090000
H        0.58310000      -1.22600000      -1.73320000
H        1.87930000      -0.12650000      -1.21610000
H        0.80470000      -2.52800000       0.36980000
H        3.50770000      -1.10990000       0.48400000
H        3.01480000      -2.47060000       1.51620000
H        4.13760000      -3.17320000      -0.40640000
H        2.32170000      -0.26890000       2.85510000
H        1.19990000       1.16430000       2.60590000
