20
Properties=species:S:1:pos:R:3 gdb_37983=T pbc="F F F"
C        0.01800000       1.71490000       0.03460000
C        1.47480000       1.17500000       0.06220000
C        0.97030000       0.17120000       1.15650000
O        1.67280000      -0.93670000       1.62170000
C        2.64940000      -1.53630000       0.78990000
C        2.07130000      -2.03080000      -0.52650000
C        1.80970000      -0.88230000      -1.50930000
N        1.02840000       0.27440000      -1.07740000
C       -0.06590000       0.16590000      -0.03240000
H       -0.36000000       2.20920000       0.93040000
H       -0.25200000       2.21810000      -0.89110000
H        2.40200000       1.74960000       0.01300000
H        0.58300000       0.64570000       2.06370000
H        3.47580000      -0.83100000       0.60130000
H        3.05140000      -2.36430000       1.38160000
H        2.76380000      -2.74310000      -0.99400000
H        1.14600000      -2.58040000      -0.31380000
H        2.77190000      -0.48460000      -1.85970000
H        1.30830000      -1.28480000      -2.39890000
H       -0.95300000      -0.45370000      -0.17600000
