19
Properties=species:S:1:pos:R:3 gdb_84135=T pbc="F F F"
C       -0.01770000       1.49360000       0.04070000
C        0.00700000      -0.00020000      -0.02880000
C       -0.11610000      -0.76590000      -1.11530000
C       -0.08030000      -2.24200000      -0.81310000
O        0.73810000      -3.00400000      -1.68450000
C        0.39510000      -2.27550000       0.68350000
C        0.12680000      -0.84140000       1.22420000
C       -0.19100000      -3.34180000       1.47860000
C       -0.69750000      -4.21490000       2.13200000
H        0.89990000       1.88100000       0.50150000
H       -0.12170000       1.94400000      -0.94980000
H       -0.84910000       1.84510000       0.66480000
H       -0.26210000      -0.40310000      -2.12760000
H       -1.07250000      -2.69910000      -0.90520000
H        1.58770000      -2.55300000      -1.74950000
H        1.48190000      -2.42560000       0.64150000
H        0.91750000      -0.49440000       1.89950000
H       -0.80690000      -0.81270000       1.80010000
H       -1.13660000      -4.99240000       2.70620000
