17
Properties=species:S:1:pos:R:3 gdb_32122=T pbc="F F F"
C       -0.01310000       1.44310000       0.01010000
N       -0.09230000       0.00600000      -0.12980000
C       -1.25510000      -0.69500000      -0.04960000
N       -2.39860000       0.00650000       0.00820000
C       -3.50970000      -0.73590000       0.05280000
C       -3.51950000      -2.11600000       0.04580000
C       -2.25630000      -2.73950000      -0.00400000
N       -2.13040000      -4.10480000      -0.05210000
N       -1.12650000      -2.03560000      -0.04450000
H        0.99450000       1.76610000      -0.26240000
H       -0.73250000       1.92610000      -0.65480000
H       -0.22700000       1.78220000       1.03280000
H        0.74370000      -0.54760000      -0.05360000
H       -4.44690000      -0.18390000       0.09910000
H       -4.44010000      -2.68500000       0.07790000
H       -2.89310000      -4.66140000       0.29660000
H       -1.20540000      -4.45640000       0.14060000
