16
Properties=species:S:1:pos:R:3 gdb_123789=T pbc="F F F"
C       -0.33880000       1.07790000      -0.30820000
C        1.07460000       1.13250000       0.21260000
C        0.38740000      -0.19430000       0.03560000
N        0.00530000      -0.89900000       1.22700000
C       -1.08720000      -1.70630000       1.27280000
C       -1.49300000      -2.63220000       2.21730000
N       -2.68730000      -3.11870000       1.78490000
N       -3.06380000      -2.62200000       0.70840000
O       -1.98150000      -1.63480000       0.30990000
H       -1.13410000       1.38570000       0.35930000
H       -0.51920000       1.28270000      -1.35670000
H        1.87810000       1.37930000      -0.47140000
H        1.21890000       1.48390000       1.22820000
H        0.70770000      -0.81970000      -0.79550000
H        0.74510000      -1.14110000       1.86810000
H       -1.02520000      -2.95480000       3.13050000
