12
Properties=species:S:1:pos:R:3 gdb_133443=T pbc="F F F"
F        0.06390000       0.08700000      -0.20710000
C        0.01820000       1.39040000      -0.00230000
N       -1.13010000       1.91560000       0.11850000
O       -1.17120000       3.29320000       0.33500000
C       -0.03040000       4.07550000       0.41860000
N       -0.09310000       5.31870000       0.61480000
N        1.17180000       3.41800000       0.27550000
C        1.32590000       2.06790000       0.05940000
N        2.47120000       1.52970000      -0.06330000
H       -1.05770000       5.63130000       0.69610000
H        2.00330000       3.98940000       0.33660000
H        2.37780000       0.52730000      -0.21670000
