18
Properties=species:S:1:pos:R:3 gdb_30253=T pbc="F F F"
C       -0.27750000       1.50450000       0.12390000
C       -0.03450000       0.00130000       0.02750000
C        1.12320000      -0.45660000      -0.95020000
N        1.75940000      -1.09190000       0.21310000
C        2.86350000      -1.57550000       0.84530000
C        2.58420000      -1.49680000       2.20350000
C        1.30020000      -0.89400000       2.37950000
O        0.75240000      -0.65530000       3.60990000
C        0.81570000      -0.65860000       1.10950000
H        0.65730000       2.04330000       0.30760000
H       -0.72560000       1.89080000      -0.79820000
H       -0.96340000       1.73600000       0.94570000
H       -0.97800000      -0.51570000      -0.18340000
H        0.84700000      -1.15370000      -1.74690000
H        1.70080000       0.37370000      -1.36940000
H        3.71920000      -1.97440000       0.32500000
H        3.21270000      -1.85670000       3.00390000
H       -0.13410000      -0.30400000       3.48920000
