18
Properties=species:S:1:pos:R:3 gdb_99357=T pbc="F F F"
N        0.31470000       1.30970000      -0.04100000
C       -0.00910000      -0.10320000       0.02840000
C       -1.49870000      -0.43190000      -0.03560000
O       -2.38290000       0.38050000      -0.13460000
O       -1.70190000      -1.76330000       0.03390000
C       -3.07250000      -2.19470000      -0.01650000
C       -3.05620000      -3.72140000       0.07820000
C       -4.40270000      -4.27620000       0.03670000
C       -5.52400000      -4.70600000       0.00020000
H       -0.07510000       1.69710000      -0.89600000
H       -0.17080000       1.79760000       0.70690000
H        0.48970000      -0.64220000      -0.78570000
H        0.39080000      -0.53420000       0.95380000
H       -3.63010000      -1.74870000       0.81160000
H       -3.53120000      -1.85680000      -0.94970000
H       -2.45430000      -4.12450000      -0.74500000
H       -2.55260000      -4.01700000       1.00630000
H       -6.51030000      -5.09820000      -0.03110000
