16
Properties=species:S:1:pos:R:3 gdb_51289=T pbc="F F F"
O        1.96530000       4.13730000       0.18970000
C        1.07540000       3.33280000       0.03480000
N        1.22270000       1.97910000      -0.12750000
C        2.40960000       1.24320000      -0.16100000
C        2.49530000      -0.09370000      -0.23730000
C        3.93220000      -0.56620000      -0.25670000
C        4.72290000       0.73730000      -0.26510000
O        4.48330000       1.56460000      -1.40400000
C        3.77730000       1.86240000      -0.18010000
H        0.00470000       3.61370000       0.00910000
H        0.36700000       1.44800000      -0.20060000
H        1.65200000      -0.76990000      -0.32450000
H        4.18060000      -1.16860000       0.62720000
H        4.16150000      -1.18040000      -1.13620000
H        5.72960000       0.78050000       0.14130000
H        3.97470000       2.82870000       0.26080000
