19
Properties=species:S:1:pos:R:3 gdb_72221=T pbc="F F F"
C        0.03560000       1.55120000       0.12960000
C       -0.04470000       0.06630000      -0.09290000
C        0.38810000      -0.56670000      -1.43710000
C       -0.75900000      -1.61860000      -1.29390000
O       -0.35150000      -2.90300000      -0.84890000
C       -0.35710000      -2.96700000       0.57800000
C       -0.64960000      -1.56200000       1.08610000
O        0.50630000      -0.69030000       1.02360000
C       -1.32400000      -0.82680000      -0.08180000
H        1.08400000       1.86650000       0.18000000
H       -0.44430000       2.09640000      -0.68940000
H       -0.44750000       1.83200000       1.07020000
H        0.21280000       0.10570000      -2.28310000
H        1.40500000      -0.96170000      -1.48060000
H       -1.39460000      -1.74510000      -2.17280000
H       -1.13270000      -3.67160000       0.91240000
H        0.61640000      -3.32110000       0.93620000
H       -1.11430000      -1.54170000       2.07670000
H       -2.35780000      -0.49290000      -0.03990000
