25
Properties=species:S:1:pos:R:3 gdb_60125=T pbc="F F F"
C        0.03070000       1.50460000       0.12270000
C       -0.01130000      -0.01510000       0.01560000
C        0.38220000      -0.70190000       1.32530000
O       -1.33460000      -0.34550000      -0.40650000
C       -1.51660000      -1.66770000      -0.81540000
C       -2.32600000      -2.62630000       0.03960000
C       -2.85260000      -2.21730000       1.39780000
C       -2.90320000      -2.05290000      -1.25010000
C       -4.02760000      -1.03860000      -1.25990000
H        1.03610000       1.84530000       0.38680000
H       -0.25690000       1.96230000      -0.82720000
H       -0.66500000       1.85010000       0.89420000
H        0.69040000      -0.33820000      -0.77250000
H       -0.28460000      -0.39390000       2.13680000
H        0.33340000      -1.79020000       1.23390000
H        1.40720000      -0.43160000       1.59970000
H       -0.67240000      -2.06700000      -1.37940000
H       -2.02150000      -3.66900000      -0.02040000
H       -2.97920000      -1.13520000       1.46940000
H       -3.81900000      -2.68850000       1.60870000
H       -2.15860000      -2.51860000       2.19000000
H       -2.94100000      -2.75220000      -2.08210000
H       -3.88500000      -0.26640000      -0.50270000
H       -4.07760000      -0.53430000      -2.23100000
H       -4.99620000      -1.51990000      -1.08520000
