15
Properties=species:S:1:pos:R:3 gdb_75980=T pbc="F F F"
O        0.53120000       0.30670000      -0.94690000
C       -0.05910000      -0.48310000       0.02240000
C        0.55000000      -0.25390000       1.39840000
N        1.54300000       0.51190000       1.52520000
O       -0.07630000      -0.88640000       2.42470000
C       -1.20480000      -1.66220000       2.04390000
O       -2.10540000      -0.93260000       1.24770000
C       -1.57010000      -0.29210000       0.14630000
N       -2.26190000       0.38280000      -0.65420000
H        1.18150000       0.85530000      -0.47800000
H        0.09430000      -1.55230000      -0.22220000
H        1.84830000       0.60500000       2.49300000
H       -0.87210000      -2.57230000       1.52710000
H       -1.72680000      -1.91830000       2.96510000
H       -3.24620000       0.36910000      -0.38000000
