22
Properties=species:S:1:pos:R:3 gdb_60648=T pbc="F F F"
C       -0.08240000       1.52650000      -0.36710000
N       -0.13580000       0.09340000      -0.13070000
C       -0.07270000      -0.38990000       1.23740000
C        1.00080000       0.15110000       2.22280000
C       -0.05390000       0.00020000       3.35410000
C       -1.16750000      -0.00310000       2.27010000
C       -0.11310000      -0.82840000      -1.15630000
C       -0.10270000      -0.27940000      -2.57650000
O       -0.10770000      -2.03160000      -0.95290000
H       -0.50320000       2.05260000       0.49240000
H        0.94180000       1.89540000      -0.51670000
H       -0.67700000       1.80630000      -1.23800000
H       -0.00260000      -1.47400000       1.16140000
H        1.93800000      -0.40470000       2.30270000
H        1.23300000       1.20490000       2.04070000
H        0.02590000      -0.96710000       3.85680000
H       -0.09290000       0.78460000       4.11220000
H       -1.56060000       1.00490000       2.10390000
H       -2.00950000      -0.68920000       2.38600000
H        0.71790000       0.42500000      -2.74280000
H        0.00520000      -1.12730000      -3.25180000
H       -1.03740000       0.24120000      -2.81110000
