18
Properties=species:S:1:pos:R:3 gdb_9547=T pbc="F F F"
C       -0.20310000       1.47910000       0.07870000
C        0.07790000      -0.00920000       0.00310000
O        1.19040000      -0.33220000      -0.86920000
C        2.00750000      -0.76630000       0.23820000
C        0.80630000      -0.65270000       1.21040000
O        0.96160000       0.19650000       2.31780000
C        0.21250000      -1.98170000       1.65160000
O        1.06900000      -2.48160000       2.67560000
H        0.67110000       2.02710000       0.43650000
H       -0.47340000       1.85080000      -0.91430000
H       -1.03390000       1.67720000       0.76320000
H       -0.82490000      -0.55060000      -0.31530000
H        2.43210000      -1.76370000       0.07780000
H        2.80980000      -0.05510000       0.46860000
H        1.24790000      -0.37000000       3.04660000
H       -0.80440000      -1.80940000       2.03490000
H        0.15180000      -2.67380000       0.79990000
H        0.63550000      -3.22020000       3.11170000
