21
Properties=species:S:1:pos:R:3 gdb_105671=T pbc="F F F"
C        0.20090000       1.68420000       0.27550000
C       -0.09210000       0.19770000       0.02710000
C        0.61620000      -0.40470000      -1.20020000
C        2.15030000      -0.59620000      -1.04700000
O        2.02770000      -2.02200000      -1.14340000
C        0.59290000      -1.95420000      -1.36140000
C       -0.17830000      -2.83230000      -0.39760000
C        0.22800000       0.33930000      -2.45940000
O       -0.47330000      -0.10610000      -3.33240000
H        1.27740000       1.87690000       0.34040000
H       -0.20620000       2.32560000      -0.51140000
H       -0.24690000       2.00390000       1.22080000
H        0.21700000      -0.37410000       0.90850000
H       -1.17350000       0.04760000      -0.07610000
H        2.76650000      -0.17410000      -1.85320000
H        2.56830000      -0.27840000      -0.08290000
H        0.34660000      -2.23630000      -2.39170000
H        0.04500000      -2.59530000       0.64570000
H       -1.25610000      -2.73210000      -0.56310000
H        0.09290000      -3.87870000      -0.56920000
H        0.64950000       1.36690000      -2.54230000
