18
Properties=species:S:1:pos:R:3 gdb_301=T pbc="F F F"
C       -0.06410000       1.52670000      -0.10060000
C        0.04490000       0.02230000       0.02350000
C        1.36300000      -0.69270000      -0.18160000
C        0.71320000      -0.68650000       1.18570000
C        1.36890000       0.10890000       2.29930000
C        0.07440000      -1.97880000       1.66170000
H        0.83900000       2.03600000       0.24680000
H       -0.21730000       1.81710000      -1.14620000
H       -0.90890000       1.91820000       0.47790000
H       -0.82330000      -0.50180000      -0.37100000
H        1.37580000      -1.61740000      -0.74990000
H        2.24690000      -0.07720000      -0.32230000
H        1.85910000       1.01470000       1.93410000
H        0.63630000       0.40860000       3.05870000
H        2.13310000      -0.49530000       2.80270000
H        0.81540000      -2.63650000       2.13240000
H       -0.71080000      -1.78360000       2.40230000
H       -0.37980000      -2.53050000       0.83250000
