19
Properties=species:S:1:pos:R:3 gdb_36210=T pbc="F F F"
C       -0.15210000      -1.11350000       0.50050000
C       -0.06890000       0.03710000       0.16310000
C        0.05130000       1.43910000      -0.23800000
C        1.47050000       1.94860000      -0.20180000
C        2.12600000       2.54250000      -1.20430000
C        3.47450000       3.02160000      -0.78860000
C        3.47470000       4.08120000       0.29740000
C        3.59540000       2.62850000       0.67710000
C        2.32540000       1.86760000       1.05200000
H       -0.23280000      -2.13070000       0.79350000
H       -0.36000000       1.57080000      -1.24590000
H       -0.57890000       2.04650000       0.42910000
H        1.72410000       2.70080000      -2.19960000
H        4.30960000       2.97370000      -1.47870000
H        4.36640000       4.69080000       0.40400000
H        2.54300000       4.60320000       0.49320000
H        4.54200000       2.29100000       1.08170000
H        1.81510000       2.30080000       1.92310000
H        2.53610000       0.82200000       1.31020000
