19
Properties=species:S:1:pos:R:3 gdb_119518=T pbc="F F F"
O       -0.21930000       1.54710000       0.03150000
C        0.03390000       0.15280000      -0.02320000
C       -1.31270000      -0.55680000       0.10200000
C       -1.20540000      -2.04610000       0.02730000
O       -2.22820000      -2.84180000       0.64920000
C       -0.85390000      -3.08680000       0.99390000
C       -0.19200000      -3.95740000      -0.11910000
C       -1.16500000      -4.26680000      -1.22500000
C       -0.56620000      -2.88760000      -1.13630000
H        0.62030000       2.00940000      -0.04540000
H        0.52220000      -0.12580000      -0.97060000
H        0.69820000      -0.16930000       0.79430000
H       -1.77630000      -0.28400000       1.05520000
H       -1.97410000      -0.19100000      -0.69390000
H       -0.58990000      -3.04680000       2.04440000
H        0.75570000      -4.46440000       0.00300000
H       -0.76220000      -4.88260000      -2.02300000
H       -2.21260000      -4.42340000      -1.00250000
H        0.05260000      -2.46110000      -1.91490000
