20
Properties=species:S:1:pos:R:3 gdb_18054=T pbc="F F F"
C        0.00230000       1.55840000       0.07970000
O        1.43980000       1.54190000      -0.05000000
C        1.38480000       0.17560000      -0.53690000
C        2.51040000      -0.71680000      -0.04390000
C        2.33950000      -1.16690000       1.41240000
C        0.93360000      -1.73910000       1.63640000
C       -0.12370000      -0.64600000       1.42660000
C       -0.05050000       0.01670000       0.03570000
H       -0.32530000       2.04960000       1.00290000
H       -0.47450000       2.04990000      -0.78090000
H        1.37480000       0.18470000      -1.63820000
H        2.54090000      -1.60330000      -0.69220000
H        3.46020000      -0.18890000      -0.19090000
H        3.10570000      -1.90890000       1.66070000
H        2.49350000      -0.31370000       2.08470000
H        0.76160000      -2.57570000       0.94420000
H        0.84100000      -2.14810000       2.64840000
H       -1.13070000      -1.04430000       1.59120000
H        0.03330000       0.11860000       2.19780000
H       -0.77660000      -0.42350000      -0.65210000
