10
Properties=species:S:1:pos:R:3 gdb_23835=T pbc="F F F"
F        0.05030000       0.08940000       0.18560000
C       -0.02150000       1.38730000       0.05870000
N       -1.15670000       1.94710000      -0.04230000
C       -1.11700000       3.32800000      -0.17300000
N       -0.08900000       4.09650000      -0.20380000
O        1.15290000       3.45960000      -0.09110000
C        1.26870000       2.09390000       0.04460000
N        2.37790000       1.49940000       0.14770000
H       -2.07060000       3.83650000      -0.26140000
H        3.15550000       2.16190000       0.11660000
