20
Properties=species:S:1:pos:R:3 gdb_61014=T pbc="F F F"
C        0.04970000       1.49210000      -0.08350000
C        0.09920000      -0.03900000       0.05540000
C        0.75150000      -0.41590000       1.37110000
O        1.70280000      -1.14230000       1.49580000
C       -1.31430000      -0.64400000       0.01340000
C       -2.15930000      -0.57190000      -1.29260000
N       -2.43310000      -2.05280000      -1.26960000
C       -1.11300000      -2.69120000      -1.40240000
C       -1.49010000      -2.16050000      -0.07840000
H        1.05510000       1.92160000      -0.11620000
H       -0.47080000       1.77870000      -1.00210000
H       -0.48540000       1.94740000       0.75780000
H        0.71250000      -0.47010000      -0.74210000
H        0.25670000       0.03950000       2.26420000
H       -1.89720000      -0.24510000       0.85070000
H       -3.08890000      -0.00920000      -1.19260000
H       -1.63750000      -0.24210000      -2.19830000
H       -1.17470000      -3.76640000      -1.53820000
H       -0.34640000      -2.20440000      -2.00170000
H       -1.70950000      -2.81410000       0.75990000
