18
Properties=species:S:1:pos:R:3 gdb_80504=T pbc="F F F"
C       -0.09590000       1.58880000      -0.03990000
C        0.03490000       0.08780000       0.10600000
N        1.19890000      -0.71370000      -0.30200000
C        2.43250000       0.06820000       0.06550000
C        2.09560000       0.03280000       1.56600000
O        2.09180000       1.28350000       2.21220000
C        0.75790000      -0.63670000       1.19110000
C        0.19330000      -1.72250000       1.91970000
C       -0.27020000      -2.61350000       2.58390000
H        0.70350000       2.13990000       0.45220000
H       -0.12500000       1.86130000      -1.10100000
H       -1.04230000       1.90850000       0.40820000
H       -0.86740000      -0.44440000      -0.19130000
H        3.32320000      -0.50090000      -0.20280000
H        2.49040000       1.06300000      -0.38220000
H        2.72660000      -0.68710000       2.10090000
H        1.82170000       1.15310000       3.12760000
H       -0.68370000      -3.40720000       3.15540000
