25
Properties=species:S:1:pos:R:3 gdb_57378=T pbc="F F F"
C       -0.00810000       1.52910000      -0.00630000
C        0.01150000      -0.01090000      -0.01500000
C        0.75650000      -0.52160000       1.23260000
C       -1.43400000      -0.54240000      -0.00270000
C        0.72370000      -0.50320000      -1.26950000
C        0.32840000      -0.23210000      -2.76100000
C        1.60540000      -1.11230000      -2.82350000
C        2.20070000      -0.21600000      -1.70480000
C        0.98070000      -1.98610000      -1.70320000
H        1.00660000       1.94060000      -0.01090000
H       -0.53600000       1.92530000      -0.87990000
H       -0.51610000       1.90360000       0.88910000
H        0.26030000      -0.17740000       2.14660000
H        0.78410000      -1.61580000       1.26020000
H        1.78900000      -0.15800000       1.25670000
H       -1.99410000      -0.19290000      -0.87610000
H       -1.45590000      -1.63710000      -0.00470000
H       -1.96370000      -0.19960000       0.89280000
H       -0.59990000      -0.69010000      -3.11500000
H        0.42560000       0.79800000      -3.11640000
H        2.11470000      -1.46420000      -3.72120000
H        2.44120000       0.81530000      -1.97950000
H        2.98990000      -0.65890000      -1.09020000
H        1.67610000      -2.56520000      -1.08860000
H        0.10230000      -2.57830000      -1.97610000
