18
Properties=species:S:1:pos:R:3 gdb_29725=T pbc="F F F"
C        0.02860000       1.40730000       0.02040000
N        0.01620000      -0.04130000       0.00200000
C        0.01300000      -0.82220000      -1.12680000
C        0.02390000      -0.23380000      -2.49830000
C       -0.00090000      -2.14640000      -0.72730000
C       -0.00650000      -2.17390000       0.68310000
C        0.00410000      -0.86020000       1.12640000
C        0.00400000      -0.34720000       2.43680000
C        0.00390000       0.09230000       3.56090000
H        0.92290000       1.80010000      -0.47470000
H       -0.85470000       1.81530000      -0.48210000
H        0.02710000       1.74160000       1.05790000
H        0.91280000       0.38330000      -2.68100000
H        0.01900000      -1.03490000      -3.24040000
H       -0.85170000       0.40020000      -2.68770000
H       -0.00630000      -2.99620000      -1.39310000
H       -0.01700000      -3.04100000       1.32440000
H        0.00360000       0.46660000       4.55410000
