14
Properties=species:S:1:pos:R:3 gdb_28244=T pbc="F F F"
N        0.04870000       1.30420000      -0.29730000
C       -0.02830000      -0.06080000      -0.06470000
N       -1.09360000      -0.81000000      -0.29380000
C       -0.58510000      -2.07280000      -0.19160000
C        0.73660000      -2.10810000       0.07540000
N        1.11040000      -0.78510000       0.27490000
O        1.09050000      -3.30070000       0.68380000
C       -0.01640000      -4.12050000       0.25300000
O       -1.17250000      -3.28010000       0.08270000
H       -0.86440000       1.66770000      -0.53840000
H        0.45050000       1.83070000       0.46960000
H        2.03710000      -0.41100000       0.14270000
H        0.23850000      -4.56440000      -0.72220000
H       -0.22220000      -4.87890000       1.00830000
