15
Properties=species:S:1:pos:R:3 gdb_23108=T pbc="F F F"
O        0.01910000       1.29210000       0.07130000
N        0.06270000      -0.11060000      -0.03950000
C       -1.11020000      -0.62100000      -0.00350000
C       -1.24470000      -2.14230000      -0.11080000
N       -2.68760000      -2.33580000       0.03400000
C       -3.31840000      -1.15310000       0.13160000
C       -2.46320000      -0.07670000       0.13150000
C       -2.95510000       1.29390000       0.25320000
O       -4.13870000       1.56360000       0.36750000
H        0.95140000       1.52880000       0.03390000
H       -0.89200000      -2.51550000      -1.07910000
H       -0.69200000      -2.66270000       0.67800000
H       -3.14790000      -3.21930000      -0.09120000
H       -4.39620000      -1.09760000       0.21020000
H       -2.18460000       2.08220000       0.23190000
