14
Properties=species:S:1:pos:R:3 gdb_127186=T pbc="F F F"
C       -0.00840000       1.45870000      -0.02580000
N       -0.00540000      -0.00310000      -0.01040000
C       -0.01460000      -0.68870000       1.19920000
O       -0.02520000      -0.13980000       2.27410000
C        0.00660000      -0.67430000      -1.21100000
N        0.01540000      -0.03790000      -2.36140000
O        0.02590000      -1.09180000      -3.29530000
C        0.02210000      -2.21590000      -2.58910000
N        0.01040000      -2.05170000      -1.30590000
H        0.88260000       1.83290000      -0.53630000
H       -0.89180000       1.82900000      -0.55230000
H       -0.01850000       1.78780000       1.01170000
H       -0.01090000      -1.77790000       1.05700000
H        0.02890000      -3.14700000      -3.13710000
