14
Properties=species:S:1:pos:R:3 gdb_10875=T pbc="F F F"
O       -0.04610000       1.44470000      -0.06270000
C       -0.04000000       0.04580000      -0.02650000
C       -0.02560000      -0.67030000       1.38370000
C       -1.47290000      -0.09960000       1.58210000
C       -1.46180000      -0.59630000       0.07410000
O       -2.45880000      -0.52740000      -0.85940000
C       -0.73200000      -1.81040000       0.65120000
O       -0.77110000      -3.00250000       0.58280000
H        0.85460000       1.75380000       0.07620000
H        0.62810000      -0.37920000      -0.78480000
H        0.78240000      -0.70390000       2.10650000
H       -2.12600000      -0.62600000       2.27850000
H       -1.51790000       0.98140000       1.68510000
H       -2.80030000      -1.41820000      -1.00160000
