16
Properties=species:S:1:pos:R:3 gdb_90287=T pbc="F F F"
N        1.29190000       0.68260000      -0.61640000
H        1.21730000      -0.15100000      -0.03730000
H        2.25480000       0.99730000      -0.52840000
H        1.19280000       0.36390000      -1.57690000
C       -1.21660000       1.49790000       1.43700000
C       -2.35200000       1.62780000       2.50690000
C       -1.89510000       0.21080000       2.90400000
C       -1.80720000      -0.97090000       3.53110000
C       -0.69790000      -1.70760000       2.85570000
O       -0.23010000      -2.78550000       3.03510000
O       -0.16180000      -0.85240000       1.79650000
C       -0.90660000       0.26040000       1.87530000
H       -0.83990000       2.14760000       0.66150000
H       -2.20990000       2.39440000       3.27530000
H       -3.37500000       1.69580000       2.12340000
H       -2.35010000      -1.41800000       4.34950000
