21
Properties=species:S:1:pos:R:3 gdb_70348=T pbc="F F F"
C       -0.05820000       1.49790000       0.01450000
C        0.03730000      -0.00620000      -0.00900000
O       -0.23100000      -0.66240000       1.24180000
C        1.10010000      -0.73710000       0.70240000
C        1.55390000      -2.07300000       0.13060000
C        0.80250000      -2.40880000      -1.16900000
C        0.75500000      -1.16130000      -2.10170000
C       -0.48300000      -0.71480000      -1.26380000
C       -0.73070000      -2.22030000      -0.98080000
H        0.42560000       1.93130000      -0.86770000
H       -1.10710000       1.81490000       0.00820000
H        0.41730000       1.90560000       0.91020000
H        1.83450000      -0.18150000       1.28610000
H        2.63060000      -2.01200000      -0.07330000
H        1.41570000      -2.86480000       0.87740000
H        1.15720000      -3.35120000      -1.59330000
H        1.62620000      -0.49820000      -2.12490000
H        0.47770000      -1.43150000      -3.12380000
H       -1.27230000      -0.13940000      -1.75400000
H       -1.29240000      -2.68260000      -1.79660000
H       -1.17160000      -2.48540000      -0.02000000
