18
Properties=species:S:1:pos:R:3 gdb_85208=T pbc="F F F"
C        0.00850000       1.63180000      -0.03680000
C        0.03470000       0.11180000       0.00570000
C        1.02300000      -0.62690000      -0.94840000
C        1.65170000      -1.21520000       0.33170000
O        2.51500000      -2.00390000       0.61120000
N        0.79050000      -0.48770000       1.12560000
C        0.53780000      -0.56790000       2.53940000
C        0.87200000       0.72500000       3.27500000
O        0.21820000       1.17580000       4.17680000
H        1.02370000       2.04030000      -0.01020000
H       -0.47920000       1.97630000      -0.95430000
H       -0.55030000       2.04440000       0.80990000
H       -0.98520000      -0.28970000      -0.05080000
H        0.57880000      -1.37170000      -1.61060000
H        1.68780000       0.02370000      -1.52050000
H       -0.49840000      -0.84750000       2.76410000
H        1.19970000      -1.35470000       2.92810000
H        1.79470000       1.22550000       2.90290000
