14
Properties=species:S:1:pos:R:3 gdb_129602=T pbc="F F F"
N        0.08270000       1.38010000       0.18860000
C       -0.00730000       0.01410000       0.05260000
C       -1.12540000      -0.83200000      -0.00140000
C       -2.52790000      -0.58400000      -0.02110000
O       -3.36350000      -1.48580000      -0.07860000
C       -0.55170000      -2.15190000      -0.05480000
O       -1.26270000      -3.27470000      -0.12060000
N        0.76010000      -2.14540000      -0.03970000
N        1.06530000      -0.79140000       0.02370000
H        0.91140000       1.80960000      -0.19760000
H       -0.75360000       1.88520000      -0.06330000
H       -2.86610000       0.47340000       0.01770000
H       -2.20070000      -2.98880000      -0.12120000
H        2.03260000      -0.52910000       0.10230000
