17
Properties=species:S:1:pos:R:3 gdb_6652=T pbc="F F F"
C       -0.14290000       1.41780000       0.16330000
C       -0.21230000      -0.10060000       0.21190000
O        0.49030000      -0.76240000       0.95540000
N       -1.11200000      -0.67740000      -0.64000000
C       -1.29430000      -2.11620000      -0.69320000
C       -2.18000000      -2.64890000       0.45770000
C       -2.39500000      -4.08580000       0.36080000
C       -2.55420000      -5.27130000       0.24240000
H       -0.40160000       1.81450000       1.14880000
H        0.88830000       1.71320000      -0.04580000
H       -0.80100000       1.86730000      -0.58490000
H       -1.70940000      -0.09080000      -1.19720000
H       -1.73790000      -2.37620000      -1.65770000
H       -0.31140000      -2.58850000      -0.62910000
H       -1.68850000      -2.40010000       1.40430000
H       -3.14360000      -2.12400000       0.44790000
H       -2.69900000      -6.31960000       0.15760000
