19
Properties=species:S:1:pos:R:3 gdb_85136=T pbc="F F F"
C       -0.30250000       1.51120000      -0.04240000
C        0.15060000       0.06960000      -0.06640000
O        1.43790000      -0.08860000      -0.75510000
C        2.00530000      -0.72460000       0.33150000
N        3.15230000      -1.20300000       0.49250000
C        0.76840000      -0.59560000       1.20490000
C        0.78830000       0.11690000       2.58110000
C       -0.20210000      -0.97800000       3.04960000
N        0.16070000      -1.76080000       1.84740000
H        0.44900000       2.15140000       0.42810000
H       -0.47170000       1.87430000      -1.06060000
H       -1.24210000       1.60760000       0.51200000
H       -0.59530000      -0.57510000      -0.54790000
H        3.72480000      -1.09290000      -0.34680000
H        1.76830000       0.04460000       3.05450000
H        0.44290000       1.15040000       2.60720000
H        0.02020000      -1.48290000       3.99470000
H       -1.24290000      -0.62720000       3.07510000
H       -0.58710000      -2.22200000       1.34110000
