21
Properties=species:S:1:pos:R:3 gdb_113249=T pbc="F F F"
C       -0.32440000       1.57510000      -0.39390000
C       -0.00470000       0.18370000       0.14760000
N       -1.22440000      -0.61780000       0.21480000
C       -1.56990000      -1.45180000      -0.93470000
C       -1.16340000      -2.07130000       0.36060000
C        0.14980000      -2.82110000       0.46990000
C       -2.26350000      -2.59210000       1.29170000
C       -2.66460000      -3.96580000       0.98900000
N       -2.96600000      -5.05200000       0.73420000
H        0.57590000       2.19650000      -0.41450000
H       -0.71790000       1.51500000      -1.41390000
H       -1.07610000       2.06720000       0.22920000
H        0.77720000      -0.27990000      -0.47530000
H        0.39960000       0.26210000       1.16380000
H       -2.61070000      -1.43650000      -1.24940000
H       -0.85210000      -1.51350000      -1.75220000
H        0.88550000      -2.47310000      -0.25680000
H        0.58140000      -2.71400000       1.47210000
H       -0.01330000      -3.88860000       0.29220000
H       -1.92110000      -2.54980000       2.33310000
H       -3.13480000      -1.93550000       1.21670000
