13
Properties=species:S:1:pos:R:3 gdb_128552=T pbc="F F F"
C        0.00810000       1.43070000      -0.03330000
O        0.01010000      -0.00600000      -0.01760000
C        0.59400000      -0.61090000      -1.04090000
C        0.72760000      -1.96160000      -1.25950000
O        1.38950000      -2.09370000      -2.42710000
N        1.65310000      -0.82080000      -2.90720000
N        1.18510000       0.03770000      -2.09330000
C        0.29660000      -3.11990000      -0.48350000
O        0.48390000      -4.27090000      -0.79960000
H        1.03060000       1.81720000      -0.03410000
H       -0.52150000       1.80550000      -0.91310000
H       -0.50990000       1.72830000       0.87750000
H       -0.23300000      -2.83510000       0.44800000
