18
Properties=species:S:1:pos:R:3 gdb_108387=T pbc="F F F"
C        0.20270000       1.50660000       0.07430000
C       -0.11130000       0.01320000      -0.09160000
C        0.62670000      -0.59220000      -1.24390000
O        0.33570000      -0.11220000      -2.55340000
C        0.50900000      -1.45170000      -3.10080000
C        0.91660000      -1.98770000      -1.73540000
C        2.05430000      -1.12360000      -1.18430000
C        3.10930000      -0.61920000      -2.01820000
N        3.95590000      -0.21740000      -2.69680000
H        1.26420000       1.66500000       0.28810000
H       -0.04150000       2.05440000      -0.83980000
H       -0.37840000       1.93420000       0.89590000
H        0.14720000      -0.53820000       0.81980000
H       -1.18600000      -0.12780000      -0.25740000
H       -0.44970000      -1.84610000      -3.45100000
H        1.25160000      -1.47880000      -3.90400000
H        0.69480000      -2.96180000      -1.32110000
H        2.36990000      -1.41950000      -0.18820000
