16
Properties=species:S:1:pos:R:3 gdb_71531=T pbc="F F F"
C        0.02460000       1.45670000      -0.09590000
C        0.02080000      -0.03230000      -0.01090000
O        0.58940000      -0.81670000      -1.10270000
C        0.10920000      -1.81550000      -0.17040000
C        0.51450000      -1.01920000       1.10500000
C       -0.88970000      -1.14850000       1.72990000
C       -1.19410000      -1.02950000       0.21930000
C       -2.45580000      -1.02710000      -0.46380000
N       -3.47390000      -1.01230000      -1.01330000
H        1.05130000       1.82620000      -0.17530000
H       -0.53540000       1.78890000      -0.97470000
H       -0.43510000       1.89120000       0.79690000
H        0.21810000      -2.87030000      -0.41620000
H        1.49400000      -1.01610000       1.57890000
H       -1.13500000      -2.10750000       2.19120000
H       -1.23130000      -0.32090000       2.35550000
