21
Properties=species:S:1:pos:R:3 gdb_100650=T pbc="F F F"
C       -0.09410000       1.61080000      -0.08420000
C       -0.01090000       0.08300000      -0.01880000
C        0.80790000      -0.50580000      -1.17160000
O        2.16880000      -0.10340000      -1.12420000
C        0.67760000      -2.06240000      -1.29260000
C        1.19530000      -2.79730000      -0.04990000
O       -0.70870000      -2.40970000      -1.40800000
C        1.40320000      -2.50850000      -2.48990000
C        1.94450000      -2.87080000      -3.50030000
H        0.90480000       2.05570000      -0.10540000
H       -0.62060000       1.93720000      -0.98780000
H       -0.63190000       2.01410000       0.77910000
H        0.44370000      -0.21970000       0.93510000
H       -1.01030000      -0.36100000      -0.03990000
H        0.42930000      -0.09600000      -2.11740000
H        2.49360000      -0.26300000      -0.23150000
H        0.58760000      -2.53970000       0.82080000
H        1.13140000      -3.87540000      -0.20850000
H        2.23980000      -2.54070000       0.14400000
H       -0.98150000      -2.22070000      -2.31240000
H        2.43760000      -3.18920000      -4.38550000
