14
Properties=species:S:1:pos:R:3 gdb_27836=T pbc="F F F"
N        0.00930000       1.38280000       0.12530000
C        0.00600000       0.01760000       0.04470000
C       -1.17490000      -0.69880000       0.02530000
C       -1.20860000      -2.11480000      -0.00940000
O       -2.12480000      -2.88760000      -0.02890000
O        0.12230000      -2.73550000      -0.03060000
C        1.23250000      -2.01720000      -0.01440000
O        2.34550000      -2.75820000      -0.03800000
C        1.26150000      -0.66200000       0.02170000
H        0.85060000       1.87490000      -0.12450000
H       -0.84950000       1.87220000      -0.06540000
H       -2.13630000      -0.20160000       0.04090000
H        2.07550000      -3.68640000      -0.05930000
H        2.20730000      -0.14040000       0.04360000
