23
Properties=species:S:1:pos:R:3 gdb_76678=T pbc="F F F"
C        0.34060000       1.17200000       0.79590000
C        0.73670000      -0.17120000       0.22430000
C        0.45470000      -0.58960000      -1.18420000
C       -0.24230000       0.29310000      -2.19610000
N        1.83140000      -0.34970000      -0.74130000
C        2.59310000       0.78480000      -1.25230000
C        4.04320000       0.71190000      -0.79860000
C        4.42190000       0.14200000       0.51490000
N        4.72730000      -0.58410000      -0.73490000
H        1.09530000       1.53050000       1.50510000
H        0.19870000       1.94630000       0.04000000
H       -0.60240000       1.07050000       1.34320000
H        0.72440000      -0.96080000       0.97610000
H        0.25100000      -1.64890000      -1.34570000
H       -0.07820000       1.35880000      -2.02540000
H        0.10460000       0.06250000      -3.20950000
H       -1.32190000       0.11050000      -2.17110000
H        2.57200000       0.74370000      -2.34920000
H        2.18500000       1.76560000      -0.96740000
H        4.65720000       1.51440000      -1.20520000
H        5.28640000       0.52830000       1.04770000
H        3.63020000      -0.25020000       1.14640000
H        4.00770000      -1.29870000      -0.84790000
