15
Properties=species:S:1:pos:R:3 gdb_127832=T pbc="F F F"
C       -0.08430000       1.44240000      -0.01780000
N       -0.13970000      -0.00590000      -0.01210000
C        0.52280000      -0.61820000      -0.91440000
N        1.31900000      -0.07090000      -1.89710000
C        0.50980000      -2.10200000      -0.94370000
N       -0.05880000      -2.85310000      -0.03450000
O        0.18400000      -4.15120000      -0.49410000
C        0.87330000      -4.03140000      -1.62660000
N        1.11390000      -2.80820000      -1.96990000
H        0.94560000       1.82140000       0.07760000
H       -0.50710000       1.87510000      -0.94060000
H       -0.66650000       1.83220000       0.82020000
H        1.17180000       0.89440000      -2.13890000
H        1.60370000      -0.68360000      -2.64560000
H        1.15610000      -4.94150000      -2.13470000
