17
Properties=species:S:1:pos:R:3 gdb_79439=T pbc="F F F"
C       -0.22800000       1.43700000       0.11050000
N       -0.00070000      -0.00230000       0.04700000
C        0.76200000      -0.42220000      -1.15780000
C        2.14860000      -0.24820000      -0.48400000
N        2.63110000      -1.60240000      -0.88430000
C        1.15070000      -1.94110000      -0.93180000
C        0.96010000      -1.96090000       0.59480000
O        0.68920000      -2.83730000       1.35770000
C        1.23500000      -0.46190000       0.79620000
H        0.66500000       2.04980000      -0.10360000
H       -1.00630000       1.70530000      -0.61150000
H       -0.59010000       1.70090000       1.10860000
H        0.45100000      -0.07080000      -2.14260000
H        2.83190000       0.59670000      -0.54640000
H        2.97290000      -1.53750000      -1.84270000
H        0.81620000      -2.78410000      -1.52990000
H        1.42440000      -0.06880000       1.79140000
