21
Properties=species:S:1:pos:R:3 gdb_121157=T pbc="F F F"
C        0.01760000       1.43930000      -0.17000000
C       -0.06220000      -0.01930000       0.24580000
O       -1.22280000      -0.58860000      -0.33720000
C       -1.38140000      -1.95060000      -0.06470000
C       -2.04850000      -2.35860000       1.27560000
O       -3.11580000      -3.03550000       0.57180000
C       -2.62810000      -2.56180000      -0.68500000
C       -3.51270000      -1.96760000      -1.72770000
C       -2.82150000      -3.30570000      -1.96110000
H        0.90680000       1.90990000       0.25980000
H        0.07020000       1.52450000      -1.25900000
H       -0.86530000       1.98510000       0.17400000
H        0.83360000      -0.56980000      -0.08730000
H       -0.10380000      -0.10520000       1.34370000
H       -0.45330000      -2.50160000      -0.27790000
H       -1.49420000      -3.04260000       1.92670000
H       -2.41480000      -1.50070000       1.85290000
H       -4.57970000      -1.98570000      -1.53420000
H       -3.15090000      -1.09120000      -2.25370000
H       -1.99560000      -3.35450000      -2.66390000
H       -3.43700000      -4.19800000      -1.91900000
