17
Properties=species:S:1:pos:R:3 gdb_98814=T pbc="F F F"
C        0.23040000       1.32350000       0.27680000
O        0.02020000      -0.09520000       0.23990000
C       -1.25460000      -0.48490000       0.07090000
O       -2.19150000       0.27070000      -0.00810000
C       -1.33830000      -1.98510000      -0.05790000
C       -2.74890000      -2.63200000      -0.04050000
C       -2.48240000      -3.32810000      -1.40960000
C       -1.17900000      -2.52840000      -1.51690000
O       -0.37620000      -2.33470000      -2.37640000
H        1.30320000       1.45940000       0.41180000
H       -0.09960000       1.78420000      -0.65730000
H       -0.32150000       1.77230000       1.10640000
H       -0.60080000      -2.45750000       0.59650000
H       -2.94510000      -3.29810000       0.79950000
H       -3.52630000      -1.86910000      -0.09090000
H       -2.29370000      -4.40470000      -1.34550000
H       -3.19990000      -3.15290000      -2.21560000
