25
Properties=species:S:1:pos:R:3 gdb_100097=T pbc="F F F"
C       -0.20210000       1.09860000       1.11890000
C        0.01960000      -0.10820000       0.20560000
C        1.01520000      -1.10430000       0.80220000
O       -1.23180000      -0.77300000       0.01720000
C       -1.77520000      -0.88070000      -1.30290000
C       -2.08650000       0.49510000      -1.90950000
C       -0.87080000      -1.70580000      -2.22980000
C       -3.08510000      -1.64230000      -1.04170000
O       -3.75880000      -1.83440000      -2.27670000
H        0.74140000       1.61690000       1.31990000
H       -0.89650000       1.80960000       0.66340000
H       -0.62690000       0.77280000       2.07390000
H        0.40920000       0.24550000      -0.75710000
H        0.62880000      -1.50000000       1.74700000
H        1.17860000      -1.94550000       0.12330000
H        1.98020000      -0.62490000       0.99780000
H       -1.17460000       1.05650000      -2.13320000
H       -2.64670000       0.37160000      -2.83930000
H       -2.69420000       1.08410000      -1.21580000
H       -0.62390000      -2.66320000      -1.76100000
H       -1.38900000      -1.90610000      -3.17060000
H        0.06180000      -1.18210000      -2.45950000
H       -2.83760000      -2.59950000      -0.56040000
H       -3.69030000      -1.05580000      -0.33550000
H       -4.57520000      -2.30980000      -2.10180000
