19
Properties=species:S:1:pos:R:3 gdb_113419=T pbc="F F F"
C       -0.59200000       1.46920000       0.38160000
C        0.22200000       0.27130000      -0.12270000
C        1.03140000      -0.36900000       0.97740000
O        0.29990000      -1.15360000       1.94350000
C        1.22700000      -1.81420000       1.10240000
C        0.83670000      -2.95010000       0.13880000
C        2.12920000      -3.66730000       0.58270000
O        2.69260000      -4.65540000       0.21600000
C        2.43920000      -2.59240000       1.64460000
H        0.06060000       2.24770000       0.79110000
H       -1.17810000       1.91500000      -0.42710000
H       -1.28070000       1.15800000       1.17240000
H       -0.44710000      -0.47960000      -0.55680000
H        0.90710000       0.58990000      -0.91940000
H        1.78670000       0.27620000       1.43350000
H       -0.07150000      -3.48350000       0.43930000
H        0.77160000      -2.71650000      -0.92760000
H        3.42350000      -2.12160000       1.57080000
H        2.29610000      -2.95510000       2.66830000
