23
Properties=species:S:1:pos:R:3 gdb_81341=T pbc="F F F"
C       -0.20400000       1.49640000      -0.02200000
C        0.02420000      -0.01020000       0.00700000
C        1.21280000      -0.61910000      -0.83340000
C        2.14720000      -0.20900000       0.35220000
C        0.88520000      -0.63010000       1.17500000
C        0.80150000      -2.12260000       0.80250000
C        0.52580000      -3.22930000       1.76180000
C        1.01780000      -2.11530000      -0.52280000
C        1.06360000      -3.21140000      -1.53160000
H        0.70850000       2.07900000       0.13000000
H       -0.63260000       1.79870000      -0.98450000
H       -0.91670000       1.78920000       0.75770000
H       -0.92930000      -0.52480000      -0.15130000
H        1.40840000      -0.32500000      -1.86640000
H        3.05360000      -0.80190000       0.49680000
H        2.38220000       0.85750000       0.39630000
H        0.74200000      -0.34730000       2.21970000
H       -0.44130000      -3.09490000       2.26450000
H        0.50900000      -4.20360000       1.26430000
H        1.28310000      -3.27320000       2.55590000
H        0.88990000      -4.19070000      -1.07580000
H        0.30730000      -3.06930000      -2.31510000
H        2.03470000      -3.24890000      -2.04300000
