12
Properties=species:S:1:pos:R:3 gdb_8788=T pbc="F F F"
C       -0.03130000       1.38070000       0.04090000
O        0.02430000      -0.05300000      -0.03150000
C        0.63640000      -0.54300000      -1.10560000
O        1.13270000       0.10060000      -1.99420000
C        0.63940000      -2.08620000      -1.08270000
O        0.14040000      -2.72080000      -0.18600000
C        1.28930000      -2.68990000      -2.22330000
C        1.81850000      -3.24380000      -3.15120000
H        0.97780000       1.79930000       0.06290000
H       -0.56410000       1.78450000      -0.82330000
H       -0.56350000       1.60780000       0.96360000
H        2.28950000      -3.72320000      -3.97510000
