17
Properties=species:S:1:pos:R:3 gdb_62379=T pbc="F F F"
O        0.00620000       1.35500000      -0.09390000
C        0.02680000      -0.05640000      -0.02580000
C        0.98750000      -0.58690000      -0.98800000
C        1.82940000      -0.91780000      -1.78120000
C        0.02340000      -0.65290000       1.46020000
C       -1.45830000      -0.15460000       1.52130000
C       -1.44810000      -0.63100000       0.02960000
C       -1.14380000      -2.11730000       0.20790000
C       -0.18370000      -2.13010000       1.14060000
H        0.90500000       1.65330000      -0.26640000
H        2.55840000      -1.23560000      -2.48510000
H        0.78140000      -0.35740000       2.18500000
H       -2.12280000      -0.69580000       2.19670000
H       -1.55380000       0.92510000       1.63650000
H       -2.18890000      -0.31250000      -0.70220000
H       -1.58490000      -2.93160000      -0.34800000
H        0.37460000      -2.95970000       1.54990000
