15
Properties=species:S:1:pos:R:3 gdb_25875=T pbc="F F F"
C       -0.10300000       1.49440000       0.04710000
C        0.00980000      -0.01570000      -0.00690000
O        1.08200000      -0.58880000      -0.06690000
C       -1.25090000      -0.77840000       0.01670000
C       -1.36420000      -2.14480000      -0.02360000
N       -2.71770000      -2.40180000       0.02010000
C       -3.34280000      -1.19090000       0.08380000
O       -4.68210000      -1.14610000       0.13680000
N       -2.51310000      -0.18920000       0.08440000
H        0.89530000       1.93230000       0.02300000
H       -0.69910000       1.86070000      -0.79490000
H       -0.63170000       1.80330000       0.95460000
H       -0.62230000      -2.92200000      -0.07760000
H       -3.17130000      -3.30010000       0.00830000
H       -4.92480000      -0.21230000       0.17670000
