14
Properties=species:S:1:pos:R:3 gdb_129434=T pbc="F F F"
N        0.62230000       0.30940000      -0.98500000
C       -0.16650000       0.24250000       0.12290000
O       -0.00550000       0.95340000       1.10290000
C       -1.24540000      -0.76990000       0.09470000
C       -1.68240000      -1.73800000      -0.79950000
C       -2.77790000      -2.33060000      -0.14260000
O       -3.53520000      -3.33440000      -0.62590000
N       -3.01090000      -1.79010000       1.05120000
N       -2.06270000      -0.84340000       1.16820000
H        1.30770000       1.04580000      -1.02490000
H        0.39100000      -0.17900000      -1.83210000
H       -1.28320000      -1.99630000      -1.76590000
H       -4.20370000      -3.53400000       0.04160000
H       -1.98720000      -0.26340000       1.98850000
