21
Properties=species:S:1:pos:R:3 gdb_53537=T pbc="F F F"
C        0.10100000       1.42500000      -0.18360000
C        0.03170000      -0.02840000      -0.11400000
C        0.00660000      -1.23300000      -0.07080000
C       -0.10050000      -2.68690000       0.01170000
C       -1.56870000      -3.14240000       0.15920000
O       -2.14820000      -2.56980000       1.30730000
C       -2.37760000      -3.05040000      -1.17260000
C       -2.12840000      -4.56860000      -1.38630000
C       -1.72930000      -4.68080000       0.11110000
H        0.90230000       1.74960000      -0.85640000
H       -0.83630000       1.85200000      -0.55700000
H        0.29690000       1.86410000       0.80070000
H        0.34670000      -3.15200000      -0.87550000
H        0.46040000      -3.05420000       0.88060000
H       -1.93910000      -1.62640000       1.29380000
H       -3.42600000      -2.83560000      -0.95190000
H       -2.02000000      -2.35300000      -1.93450000
H       -2.97820000      -5.16870000      -1.71650000
H       -1.28930000      -4.76520000      -2.05890000
H       -0.85640000      -5.28590000       0.37190000
H       -2.57050000      -4.98100000       0.74010000
