18
Properties=species:S:1:pos:R:3 gdb_11113=T pbc="F F F"
C        0.10640000       1.46950000      -0.36530000
C        0.02850000      -0.04470000      -0.15030000
C        0.39430000      -0.44830000       1.26680000
C        0.64570000      -1.94310000       1.55630000
C        2.07800000      -1.48870000       1.94800000
O        1.77090000      -0.11580000       1.59890000
C        2.46150000      -1.66100000       3.34090000
C        2.77440000      -1.81710000       4.49100000
H        1.11070000       1.83510000      -0.13330000
H       -0.12460000       1.73520000      -1.40090000
H       -0.60150000       1.99830000       0.28240000
H       -0.98600000      -0.41020000      -0.35990000
H        0.70200000      -0.55870000      -0.84770000
H       -0.28900000       0.03020000       1.98270000
H        0.06350000      -2.38200000       2.36560000
H        0.60710000      -2.59110000       0.67870000
H        2.87060000      -1.88240000       1.29920000
H        3.05620000      -1.94960000       5.50640000
