20
Properties=species:S:1:pos:R:3 gdb_120290=T pbc="F F F"
O       -0.50140000       1.40320000       1.19100000
C       -0.69480000       0.00020000       1.28310000
C       -1.23960000      -0.48080000      -0.05850000
C       -1.39750000      -1.98310000      -0.08960000
C       -2.66440000      -2.72180000       0.23410000
C       -3.94420000      -1.96520000       0.19480000
C       -4.16910000      -1.49970000      -1.03480000
C       -3.05640000      -1.92290000      -1.96790000
N       -2.11150000      -2.71780000      -1.14720000
H       -0.16530000       1.71670000       2.03550000
H        0.25070000      -0.51840000       1.51200000
H       -1.40850000      -0.25510000       2.08280000
H       -2.18580000       0.03040000      -0.24960000
H       -0.53960000      -0.17170000      -0.84550000
H       -0.47910000      -2.50690000       0.17940000
H       -2.61300000      -3.65490000       0.79150000
H       -4.58080000      -1.82780000       1.06010000
H       -5.00470000      -0.88270000      -1.34490000
H       -3.42460000      -2.55050000      -2.79020000
H       -2.54520000      -1.06860000      -2.43230000
