14
Properties=species:S:1:pos:R:3 gdb_68729=T pbc="F F F"
C        0.00390000       1.53230000       0.02630000
C       -0.07010000       0.04470000       0.08720000
O        1.07370000      -0.74160000      -0.26980000
C        0.52760000      -0.92950000       1.04990000
C        1.36680000      -0.69490000       2.18100000
N        2.02880000      -0.52400000       3.11350000
C       -0.70680000      -1.82070000       0.93010000
O       -1.84800000      -1.03150000       1.27700000
C       -1.29160000      -0.87480000      -0.03470000
H        0.95750000       1.88410000       0.42650000
H       -0.08500000       1.87710000      -1.00910000
H       -0.81230000       1.97040000       0.60740000
H       -0.77950000      -2.89800000       0.99410000
H       -1.92620000      -1.06720000      -0.89010000
