17
Properties=species:S:1:pos:R:3 gdb_31995=T pbc="F F F"
O        0.04060000       1.31350000       0.38880000
C       -0.00650000      -0.05060000       0.00540000
C       -1.43800000      -0.47360000      -0.02120000
C       -2.60370000       0.23130000      -0.17800000
N       -3.69210000      -0.61500000      -0.18030000
C       -3.19290000      -1.81880000      -0.02370000
C       -3.95620000      -3.09980000       0.08460000
O       -3.05040000      -4.16450000      -0.19070000
N       -1.83450000      -1.79060000       0.08740000
H        0.91390000       1.65190000       0.17170000
H        0.45680000      -0.19350000      -0.98600000
H        0.55790000      -0.68780000       0.70950000
H       -2.71230000       1.29880000      -0.28230000
H       -4.38180000      -3.20100000       1.09570000
H       -4.79680000      -3.07460000      -0.62230000
H       -3.47630000      -4.99110000       0.05160000
H       -1.25860000      -2.61200000       0.17350000
