19
Properties=species:S:1:pos:R:3 gdb_62610=T pbc="F F F"
C       -0.05850000       1.58300000      -0.01060000
C        0.06940000       0.06760000      -0.01180000
O       -1.20880000      -0.53630000       0.16950000
C        0.70100000      -0.66210000      -1.19060000
C        2.24530000      -0.76160000      -1.09940000
C        2.98900000       0.15650000      -0.18350000
C        2.39470000       0.16240000       1.01430000
C        1.13400000      -0.66390000       0.93490000
C        1.36700000      -1.64700000      -0.26160000
H        0.90540000       2.07040000      -0.16700000
H       -0.74450000       1.89410000      -0.80500000
H       -0.46590000       1.94080000       0.94450000
H       -1.57970000      -0.18070000       0.98490000
H        0.19640000      -0.84120000      -2.13270000
H        2.71580000      -1.16270000      -1.99000000
H        3.85490000       0.73390000      -0.48270000
H        2.66340000       0.77740000       1.86440000
H        0.71010000      -1.03690000       1.86710000
H        1.35880000      -2.72950000      -0.25510000
