13
Properties=species:S:1:pos:R:3 gdb_25291=T pbc="F F F"
O       -0.09920000      -0.02150000      -0.00090000
C       -0.00280000       1.18750000       0.00810000
C        1.23510000       1.90870000      -0.00020000
C        2.26480000       2.54740000      -0.00670000
C        3.47540000       3.26420000      -0.01480000
C        4.75130000       2.73330000      -0.03380000
N        5.59150000       3.80930000      -0.03460000
C        4.81380000       4.93790000      -0.01660000
N        3.53990000       4.65190000      -0.00440000
H       -0.90080000       1.83850000       0.02390000
H        5.10420000       1.71610000      -0.04610000
H        6.59780000       3.77450000      -0.04630000
H        5.24190000       5.92910000      -0.01350000
