21
Properties=species:S:1:pos:R:3 gdb_106271=T pbc="F F F"
C        0.01110000       1.46200000       0.03820000
C        0.01020000      -0.04200000      -0.00590000
C        0.60170000      -0.97430000      -1.10590000
C        0.00400000      -1.95050000      -0.05220000
C        0.00370000      -3.45500000      -0.08130000
O        1.31190000      -4.01290000      -0.08560000
C        0.64910000      -1.02390000       1.03180000
C       -1.23160000      -0.99240000      -0.03300000
O       -2.16830000      -1.01010000       1.00930000
H        1.02970000       1.85990000       0.10030000
H       -0.45980000       1.87960000      -0.85840000
H       -0.54710000       1.82710000       0.90750000
H        0.11630000      -0.95010000      -2.08670000
H        1.68970000      -0.98180000      -1.19750000
H       -0.59490000      -3.84020000       0.76040000
H       -0.47330000      -3.80810000      -1.00250000
H        1.74780000      -3.73360000       0.72600000
H        1.74230000      -1.01920000       1.08230000
H        0.23450000      -1.04690000       2.04640000
H       -1.81860000      -0.97160000      -0.95620000
H       -1.70800000      -0.98410000       1.85420000
