25
Properties=species:S:1:pos:R:3 gdb_96328=T pbc="F F F"
C        0.07540000       1.61040000       0.03410000
C       -0.01200000       0.07630000       0.01070000
C        0.64270000      -0.47250000      -1.27600000
C        0.13400000      -1.83430000      -1.78710000
C       -0.15830000      -2.91220000      -0.72530000
C        0.80350000      -2.95370000       0.47320000
C        0.42460000      -1.97130000       1.59180000
O        1.18940000      -2.21740000       2.77080000
C        0.64900000      -0.49050000       1.28060000
H        1.12070000       1.94200000       0.01340000
H       -0.42810000       2.04870000      -0.83380000
H       -0.38510000       2.02430000       0.93700000
H       -1.07820000      -0.19390000       0.01140000
H        0.50910000       0.25400000      -2.08650000
H        1.72650000      -0.52260000      -1.10700000
H       -0.78210000      -1.67970000      -2.37070000
H        0.87440000      -2.22190000      -2.49780000
H       -1.17710000      -2.77970000      -0.33810000
H       -0.16260000      -3.88780000      -1.22390000
H        0.77890000      -3.96260000       0.90810000
H        1.84160000      -2.78140000       0.16310000
H       -0.64890000      -2.11990000       1.80820000
H        1.06640000      -3.14020000       3.01500000
H        1.73310000      -0.32240000       1.22180000
H        0.30280000       0.07090000       2.15600000
