20
Properties=species:S:1:pos:R:3 gdb_12503=T pbc="F F F"
C        0.00480000       1.55000000       0.04180000
C        0.02080000       0.04630000      -0.04190000
C        0.04510000      -0.57040000      -1.23640000
C        0.01140000      -1.99250000      -1.56600000
C        0.08600000      -3.08300000      -0.78770000
C        0.28800000      -3.17430000       0.69740000
C        0.85880000      -1.93420000       1.39080000
C       -0.00770000      -0.66790000       1.29070000
H        0.89020000       1.92690000       0.57160000
H       -0.02570000       2.01630000      -0.94630000
H       -0.86500000       1.90330000       0.61240000
H        0.05300000       0.07720000      -2.11150000
H       -0.11340000      -2.18040000      -2.63120000
H       -0.00380000      -4.04560000      -1.28840000
H       -0.66480000      -3.45630000       1.17230000
H        0.95820000      -4.02190000       0.89810000
H        0.99970000      -2.17500000       2.45100000
H        1.85410000      -1.71700000       0.98610000
H        0.31820000       0.03810000       2.06420000
H       -1.04880000      -0.91530000       1.54690000
