19
Properties=species:S:1:pos:R:3 gdb_98879=T pbc="F F F"
O       -0.06300000       1.38130000      -0.51650000
C       -0.03690000       0.02720000      -0.18120000
C       -1.44250000      -0.55350000      -0.08980000
O       -2.39270000       0.18670000      -0.23560000
C       -1.58210000      -2.05060000       0.16550000
C       -2.99980000      -2.46240000       0.64050000
C       -3.71830000      -3.04070000      -0.60720000
C       -2.58780000      -3.31150000      -1.56740000
C       -1.43190000      -2.79570000      -1.15610000
H       -1.00610000       1.61080000      -0.54690000
H        0.54180000      -0.55440000      -0.91690000
H        0.45340000      -0.14060000       0.79420000
H       -0.79760000      -2.34230000       0.87580000
H       -2.90660000      -3.23470000       1.40850000
H       -3.53610000      -1.61680000       1.07290000
H       -4.29520000      -3.94250000      -0.37360000
H       -4.42710000      -2.32300000      -1.03960000
H       -2.72500000      -3.85420000      -2.49640000
H       -0.48980000      -2.84480000      -1.68990000
