19
Properties=species:S:1:pos:R:3 gdb_109077=T pbc="F F F"
O       -0.00170000       1.41020000      -0.09090000
C       -0.02540000       0.00110000       0.04920000
C       -1.43390000      -0.47190000       0.11060000
C       -2.57640000       0.21680000       0.11930000
C       -3.67910000      -0.83070000       0.04310000
C       -3.69110000      -1.38430000      -1.42030000
C       -2.35580000      -2.18520000      -1.43250000
C       -1.85880000      -1.93860000       0.03090000
O       -3.09420000      -1.93510000       0.75110000
H        0.91080000       1.70290000      -0.01340000
H        0.48890000      -0.49670000      -0.79380000
H        0.50770000      -0.32090000       0.96140000
H       -2.70560000       1.28790000       0.06590000
H       -4.65090000      -0.57620000       0.46450000
H       -4.54990000      -2.04330000      -1.56840000
H       -3.73100000      -0.58990000      -2.16840000
H       -2.53330000      -3.25100000      -1.59320000
H       -1.64300000      -1.83800000      -2.18440000
H       -1.17660000      -2.68750000       0.43490000
