13
Properties=species:S:1:pos:R:3 gdb_123397=T pbc="F F F"
C        0.06590000      -1.16770000      -0.00540000
C        0.05820000       0.03230000       0.00210000
C        0.00330000       1.48240000       0.01190000
O        1.35130000       1.99920000      -0.00100000
C        1.44210000       3.32050000       0.00620000
N        0.41400000       4.13800000       0.02360000
O        1.03420000       5.40190000       0.02410000
C        2.34580000       5.17000000       0.00700000
N        2.67880000       3.92020000      -0.00480000
H        0.07840000      -2.22990000      -0.01220000
H       -0.53570000       1.86660000      -0.86230000
H       -0.51470000       1.85560000       0.90340000
H        2.99770000       6.03150000       0.00460000
