18
Properties=species:S:1:pos:R:3 gdb_17470=T pbc="F F F"
O        0.01150000       1.37870000      -0.03940000
C        0.03140000      -0.01920000       0.01090000
C       -0.43070000      -0.78840000      -1.19690000
C       -1.26730000      -0.78250000       0.07490000
C       -1.12590000      -1.90180000       1.08580000
C       -0.15220000      -3.02660000       0.83050000
C        0.28240000      -1.84200000       1.65520000
C        1.01560000      -0.67120000       0.99700000
H        0.68450000       1.66340000      -0.66700000
H       -0.82060000      -0.18790000      -2.01270000
H        0.08790000      -1.68640000      -1.51420000
H       -2.20960000      -0.24890000       0.03810000
H       -1.98180000      -2.10130000       1.72000000
H       -0.32410000      -3.95530000       1.36490000
H        0.25530000      -3.17330000      -0.16370000
H        0.46240000      -2.00940000       2.71140000
H        1.95840000      -0.96970000       0.52260000
H        1.25630000       0.08290000       1.75300000
