22
Properties=species:S:1:pos:R:3 gdb_14984=T pbc="F F F"
C       -0.15480000       1.57500000      -0.03730000
C        0.01070000       0.05250000      -0.00430000
C        0.78400000      -0.48620000       1.21820000
C        0.63510000      -2.01330000       1.33660000
C        1.59400000      -2.59950000       2.37890000
C        3.05410000      -2.32700000       1.99110000
C        3.24740000      -0.91280000       1.50910000
C        2.24430000      -0.09530000       1.18830000
H        0.80760000       2.09360000      -0.09040000
H       -0.74010000       1.88590000      -0.90840000
H       -0.67490000       1.93460000       0.85770000
H       -0.98390000      -0.41210000      -0.01040000
H        0.51250000      -0.28710000      -0.91990000
H        0.32600000      -0.02840000       2.11130000
H       -0.40340000      -2.26490000       1.58140000
H        0.84460000      -2.46700000       0.35770000
H        1.38820000      -2.14040000       3.35460000
H        1.42570000      -3.67550000       2.49610000
H        3.71830000      -2.52320000       2.84260000
H        3.37480000      -3.02820000       1.20570000
H        4.27280000      -0.55710000       1.43040000
H        2.47330000       0.92020000       0.87330000
