18
Properties=species:S:1:pos:R:3 gdb_103383=T pbc="F F F"
C       -0.08010000       1.62370000      -0.11950000
C       -0.01250000       0.10030000      -0.09760000
C       -1.40470000      -0.51550000       0.17470000
O       -1.91060000      -0.11840000       1.42980000
C        0.76910000      -0.64090000      -1.19320000
C        2.20790000      -0.37370000      -1.12700000
N        1.65570000      -1.37580000      -0.16000000
C        0.97130000      -0.60380000       0.85680000
O        1.04790000      -0.69500000       2.04730000
H        0.90610000       2.08710000      -0.20150000
H       -0.68660000       1.96160000      -0.96720000
H       -0.55490000       1.97900000       0.79780000
H       -2.11740000      -0.15710000      -0.57720000
H       -1.34750000      -1.61200000       0.08360000
H       -1.26460000      -0.38340000       2.09810000
H        0.31960000      -1.21810000      -1.99300000
H        2.85240000      -0.84170000      -1.86370000
H        2.58070000       0.56970000      -0.73870000
