16
Properties=species:S:1:pos:R:3 gdb_47883=T pbc="F F F"
O       -0.06870000      -0.02760000       0.33330000
C       -0.03920000       1.15310000       0.10260000
C       -1.31560000       2.00150000       0.01330000
O       -1.62360000       2.36750000      -1.31980000
C       -0.81240000       3.38260000      -1.87590000
C        0.60210000       2.91210000      -2.21820000
N        1.47450000       2.75560000      -1.05790000
C        1.32540000       1.87790000      -0.02470000
O        2.17960000       1.68750000       0.81620000
H       -2.14390000       1.38550000       0.36950000
H       -1.21520000       2.89340000       0.65410000
H       -1.31650000       3.68300000      -2.79970000
H       -0.76020000       4.25450000      -1.20470000
H        0.53210000       1.98050000      -2.79560000
H        1.06930000       3.66030000      -2.86420000
H        2.39480000       3.17030000      -1.09880000
