15
Properties=species:S:1:pos:R:3 gdb_80116=T pbc="F F F"
O        0.05950000       1.36900000       0.01270000
C        0.03140000      -0.01000000       0.10560000
C       -0.42490000      -0.73370000       1.35950000
N       -1.18340000      -0.01650000       2.33010000
C       -2.24100000       0.42180000       1.75850000
N       -2.39120000       0.12570000       0.40410000
C       -1.28850000      -0.74580000       0.03030000
C       -1.54660000      -1.84790000      -0.83160000
C       -1.76150000      -2.78180000      -1.56010000
H       -0.84820000       1.66680000      -0.13740000
H        0.85370000      -0.48800000      -0.41860000
H        0.13990000      -1.59320000       1.70250000
H       -2.98900000       1.03250000       2.25260000
H       -3.30700000      -0.09040000       0.03610000
H       -1.94540000      -3.60820000      -2.20110000
