16
Properties=species:S:1:pos:R:3 gdb_127678=T pbc="F F F"
C       -0.37640000       1.35690000      -0.01880000
N        0.00410000      -0.04660000      -0.01860000
N        0.04400000      -0.65440000      -1.24090000
C        0.37580000      -1.88990000      -1.27030000
N        0.69250000      -2.63580000      -0.15140000
C        0.67920000      -2.10650000       1.12740000
N        0.95460000      -2.71610000       2.21240000
C        0.29260000      -0.65460000       1.19150000
N        0.22310000       0.01200000       2.27800000
H        0.42160000       1.96740000       0.41400000
H       -0.56030000       1.64280000      -1.05300000
H       -1.27370000       1.50780000       0.58840000
H        0.41630000      -2.39830000      -2.22480000
H        0.94290000      -3.60680000      -0.26560000
H        1.20380000      -3.69370000       2.05970000
H        0.47040000      -0.61110000       3.04750000
