15
Properties=species:S:1:pos:R:3 gdb_23910=T pbc="F F F"
C       -0.11280000       1.49750000       0.18730000
C        0.03330000      -0.00310000       0.02530000
C        1.36840000      -0.59390000      -0.35680000
C        0.82610000      -0.79700000       1.03460000
C       -1.19010000      -0.66600000      -0.54810000
F       -1.49270000      -0.17450000      -1.76330000
F       -1.04080000      -1.99540000      -0.68420000
F       -2.26910000      -0.46570000       0.23000000
H        0.80270000       1.92210000       0.60690000
H       -0.30220000       1.97910000      -0.77670000
H       -0.94130000       1.74030000       0.85920000
H        1.37850000      -1.44850000      -1.02220000
H        2.18850000       0.10090000      -0.49900000
H        1.27190000      -0.24240000       1.85270000
H        0.47430000      -1.78710000       1.29770000
