18
Properties=species:S:1:pos:R:3 gdb_36211=T pbc="F F F"
C       -0.15440000      -1.11740000       0.50120000
C       -0.06970000       0.03260000       0.16250000
C        0.05350000       1.43330000      -0.24150000
C        1.47330000       1.93980000      -0.20730000
C        2.12120000       2.54830000      -1.20560000
C        3.46450000       3.01740000      -0.76140000
N        3.37980000       4.02310000       0.34010000
C        3.59820000       2.59610000       0.66040000
C        2.32680000       1.85160000       1.04850000
H       -0.23840000      -2.13390000       0.79590000
H       -0.35940000       1.56600000      -1.24840000
H       -0.56940000       2.04680000       0.42660000
H        1.72040000       2.72630000      -2.19690000
H        4.30360000       3.06630000      -1.44700000
H        4.27770000       4.50060000       0.40790000
H        4.55080000       2.29790000       1.08440000
H        1.83000000       2.31350000       1.91070000
H        2.52850000       0.80710000       1.31620000
