17
Properties=species:S:1:pos:R:3 gdb_76279=T pbc="F F F"
C        0.19300000       1.59490000       0.04720000
C       -0.01270000       0.07300000      -0.00010000
C        0.70970000      -0.60110000      -1.18830000
O        0.91120000       0.22220000      -2.30420000
C        2.03810000      -1.06480000      -0.58740000
O        3.04940000      -1.30290000      -1.20510000
N        1.84820000      -1.14650000       0.77430000
C        0.63640000      -0.58820000       1.21310000
N        0.15150000      -0.57240000       2.38250000
H        1.25600000       1.85340000       0.07940000
H       -0.23430000       2.06000000      -0.84280000
H       -0.28950000       2.00070000       0.93900000
H       -1.08160000      -0.14730000       0.00640000
H        0.16140000      -1.51690000      -1.47060000
H        1.75860000      -0.04720000      -2.68600000
H        2.56110000      -1.50140000       1.39600000
H        0.75150000      -1.04810000       3.05870000
