20
Properties=species:S:1:pos:R:3 gdb_26115=T pbc="F F F"
C       -0.03510000       1.54700000       0.01700000
C       -0.00480000       0.00590000       0.06790000
C        0.71460000      -0.49050000       1.33710000
C       -1.37390000      -0.58000000      -0.05780000
C       -2.00680000      -1.31300000      -1.02300000
N       -1.52120000      -1.70510000      -2.28370000
C       -3.34300000      -1.54770000      -0.54640000
C       -3.42160000      -0.94200000       0.66500000
O       -2.24910000      -0.34560000       0.98050000
H        0.97730000       1.95950000       0.08330000
H       -0.49240000       1.90080000      -0.91140000
H       -0.61960000       1.94440000       0.85260000
H        0.56520000      -0.34570000      -0.80310000
H        1.72500000      -0.07330000       1.39940000
H        0.16500000      -0.18500000       2.23250000
H        0.79070000      -1.58180000       1.34720000
H       -0.51070000      -1.67520000      -2.33810000
H       -1.83080000      -2.63490000      -2.53880000
H       -4.12750000      -2.08850000      -1.05320000
H       -4.20950000      -0.85050000       1.39460000
