18
Properties=species:S:1:pos:R:3 gdb_48917=T pbc="F F F"
O       -0.01050000      -0.10670000       0.02750000
C        0.00880000       1.10010000       0.00910000
C        1.25870000       1.91340000       0.00340000
C        2.71570000       1.45010000       0.01840000
N        2.88650000       2.97450000      -0.00430000
C        1.72010000       3.00620000      -1.02060000
C        0.98680000       4.32170000      -0.81160000
C        0.97850000       4.34560000       0.74090000
C        1.70930000       3.03730000       0.99810000
H       -0.93960000       1.68810000      -0.00520000
H        3.09620000       0.98090000       0.92870000
H        3.10580000       0.95300000      -0.87290000
H        1.98730000       2.70000000      -2.03370000
H        1.54500000       5.15620000      -1.24420000
H       -0.01310000       4.31810000      -1.25450000
H        1.53220000       5.19320000       1.15350000
H       -0.02600000       4.35550000       1.17300000
H        1.96570000       2.76250000       2.02300000
