19
Properties=species:S:1:pos:R:3 gdb_84943=T pbc="F F F"
O       -0.05230000       1.42480000      -0.21910000
C        0.02520000       0.00660000      -0.07250000
C        0.74390000      -0.40800000       1.19840000
C        0.36840000      -0.03930000       2.42570000
C       -0.84580000       0.79720000       2.77200000
C       -2.18360000       0.19180000       2.30100000
C       -2.42620000       0.23020000       0.77470000
C       -1.40570000      -0.55520000      -0.03050000
O       -1.66680000      -1.59320000      -0.59140000
H        0.80390000       1.78660000       0.03200000
H        0.51390000      -0.44940000      -0.94200000
H        1.61200000      -1.04870000       1.07350000
H        0.97540000      -0.37760000       3.26260000
H       -0.88680000       0.92450000       3.85810000
H       -0.74010000       1.79970000       2.34070000
H       -2.25720000      -0.84370000       2.65350000
H       -3.00160000       0.74390000       2.77790000
H       -3.40760000      -0.19480000       0.54870000
H       -2.40410000       1.27140000       0.43730000
