20
Properties=species:S:1:pos:R:3 gdb_30271=T pbc="F F F"
C       -0.06760000       1.59400000      -0.05320000
C        0.00960000       0.06690000       0.04450000
C        0.75960000      -0.58750000      -1.16630000
C        1.53740000      -1.83460000      -0.63510000
C        1.62170000      -1.49240000       0.81750000
C        0.79760000      -0.47160000       1.21080000
C        0.93710000      -0.32100000       2.61890000
C        1.85450000      -1.26800000       3.02510000
N        2.26400000      -1.98750000       1.91860000
H        0.93600000       2.03250000      -0.07930000
H       -0.60010000       1.90670000      -0.95850000
H       -0.59610000       2.01910000       0.80650000
H       -1.02110000      -0.31830000       0.07970000
H        0.08310000      -0.83930000      -1.98810000
H        1.48320000       0.13750000      -1.55530000
H        0.97570000      -2.76370000      -0.80940000
H        2.50560000      -1.95560000      -1.13550000
H        0.44390000       0.38770000       3.26730000
H        2.26170000      -1.48170000       4.00080000
H        2.94170000      -2.72910000       1.93280000
