21
Properties=species:S:1:pos:R:3 gdb_61563=T pbc="F F F"
C       -0.32150000       1.44350000      -0.09240000
N       -0.09840000       0.01270000      -0.01230000
C        0.02280000      -0.60440000       1.30810000
C       -1.30200000      -0.86340000       1.99570000
C       -2.11510000      -2.06780000       1.59610000
C       -1.42150000      -2.03850000       2.93530000
C       -0.01930000      -0.79730000      -1.11890000
N       -0.06530000      -0.13800000      -2.34670000
O        0.04720000      -2.01660000      -1.05540000
H        0.60990000       2.01610000      -0.22530000
H       -1.00130000       1.68480000      -0.91390000
H       -0.79000000       1.78920000       0.83230000
H        0.54870000      -1.55020000       1.16560000
H        0.65520000       0.04270000       1.93010000
H       -1.85950000       0.02740000       2.27560000
H       -3.19550000      -1.97410000       1.57850000
H       -1.70010000      -2.69620000       0.81670000
H       -0.54910000      -2.67000000       3.06970000
H       -2.02400000      -1.92190000       3.82940000
H        0.37980000       0.76420000      -2.42050000
H        0.16960000      -0.76650000      -3.10050000
