18
Properties=species:S:1:pos:R:3 gdb_37526=T pbc="F F F"
C       -0.04350000       1.50830000      -0.05630000
C        1.49070000       1.40970000       0.00190000
C        1.23900000       0.09480000       0.84180000
C        1.81220000      -1.07300000       0.01810000
O        3.15330000      -0.97700000      -0.39560000
C        3.20920000       0.09710000      -1.34930000
C        1.81100000       0.71920000      -1.34120000
C        0.86010000      -0.48950000      -1.04690000
N       -0.07350000       0.00840000       0.05270000
H       -0.49930000       1.93930000       0.83980000
H       -0.51210000       1.93170000      -0.95180000
H        2.14090000       2.22380000       0.32630000
H        1.19330000       0.14420000       1.92960000
H        1.60440000      -2.06780000       0.40980000
H        3.98880000       0.80830000      -1.05080000
H        3.47590000      -0.30650000      -2.33600000
H        1.58980000       1.32100000      -2.22420000
H        0.42660000      -1.05480000      -1.86950000
