17
Properties=species:S:1:pos:R:3 gdb_27050=T pbc="F F F"
C       -0.06450000       1.45990000      -0.19550000
C       -0.08100000      -0.02440000      -0.10340000
C       -1.08290000      -0.94470000       0.04360000
C       -2.55990000      -0.65530000       0.11900000
C       -3.05230000      -0.17830000      -1.23650000
O       -3.43560000       0.94020000      -1.46760000
C       -0.44080000      -2.23050000       0.07760000
C        0.88890000      -1.99510000      -0.03950000
O        1.12410000      -0.65960000      -0.14950000
H        0.39630000       1.91400000       0.69000000
H        0.50710000       1.79270000      -1.06840000
H       -1.08260000       1.84230000      -0.29090000
H       -3.09820000      -1.57180000       0.38720000
H       -2.79630000       0.11290000       0.86080000
H       -2.99360000      -0.94590000      -2.04080000
H       -0.91990000      -3.19180000       0.18420000
H        1.76050000      -2.62780000      -0.06040000
