16
Properties=species:S:1:pos:R:3 gdb_48770=T pbc="F F F"
O       -0.30770000       0.12580000       0.16180000
C       -0.07360000       1.28620000      -0.06430000
C        1.28730000       1.88450000      -0.00580000
C        1.44470000       3.33230000       0.34050000
N        1.54210000       2.94240000      -1.05550000
C        2.91550000       2.75270000      -1.53080000
C        3.58010000       1.64510000      -0.69050000
O        4.74230000       1.34720000      -0.72000000
C        2.49170000       0.99410000       0.17300000
H       -0.87030000       2.00660000      -0.35090000
H        0.57120000       3.92840000       0.59110000
H        2.35040000       3.60500000       0.88220000
H        2.89550000       2.43530000      -2.58000000
H        3.49420000       3.67960000      -1.47720000
H        2.83650000       0.89890000       1.20560000
H        2.28030000      -0.01790000      -0.19010000
