21
Properties=species:S:1:pos:R:3 gdb_80649=T pbc="F F F"
C       -0.03550000       1.52710000       0.05920000
C       -0.01680000       0.02860000      -0.02210000
C       -0.01160000      -0.67820000      -1.15720000
C       -0.00270000      -2.18960000      -1.08620000
C       -1.06300000      -2.62960000      -0.02680000
C        0.01460000      -2.26210000       1.03340000
C        1.07500000      -2.62450000      -0.04740000
C        0.00550000      -0.74540000       1.29050000
O        1.09420000      -0.34090000       2.12420000
H        0.79930000       1.89490000       0.66530000
H        0.02010000       1.98460000      -0.93230000
H       -0.95160000       1.88390000       0.54850000
H       -0.02780000      -0.18920000      -2.12790000
H       -0.00930000      -2.66240000      -2.06930000
H       -2.01130000      -2.08620000      -0.01220000
H       -1.25280000      -3.70660000      -0.04880000
H        0.03110000      -2.80300000       1.98210000
H        1.26330000      -3.70120000      -0.07130000
H        2.02950000      -2.08900000      -0.06030000
H       -0.88460000      -0.48880000       1.88140000
H        1.90730000      -0.52670000       1.64080000
