14
Properties=species:S:1:pos:R:3 gdb_18314=T pbc="F F F"
O       -0.23350000      -0.10370000       0.01960000
C       -0.13690000       1.09130000       0.11570000
C       -1.21130000       2.20700000      -0.11260000
N       -0.58930000       3.53100000       0.13460000
C        0.60200000       3.20980000       0.44110000
C        1.99840000       3.66540000       0.84930000
C        2.36040000       2.12890000       0.85770000
N        0.95710000       1.87590000       0.46030000
H       -1.59380000       2.14380000      -1.13660000
H       -2.05810000       2.04470000       0.56240000
H        2.52610000       4.26220000       0.10380000
H        2.05670000       4.16000000       1.82000000
H        3.09000000       1.81290000       0.10920000
H        2.62030000       1.71170000       1.83270000
