13
Properties=species:S:1:pos:R:3 gdb_130856=T pbc="F F F"
O        0.07750000      -0.06850000      -0.00190000
C        0.00760000       1.14230000       0.00890000
C        1.18320000       2.00510000       0.00310000
C        1.34970000       3.38000000       0.01230000
C        2.74940000       3.57660000      -0.00100000
N        3.40080000       2.39440000      -0.01770000
N        2.43980000       1.48000000      -0.01470000
C        3.44980000       4.80830000       0.00140000
C        4.01210000       5.87160000       0.00390000
H       -0.96400000       1.67530000       0.02340000
H        0.58040000       4.13440000       0.02670000
H        2.66350000       0.49640000      -0.02510000
H        4.51880000       6.80480000       0.00590000
