17
Properties=species:S:1:pos:R:3 gdb_105603=T pbc="F F F"
C        0.03440000       1.55810000       0.03900000
O        0.15840000       0.13530000       0.14720000
C        0.58300000      -0.53880000      -0.98900000
C        0.34570000      -2.08780000      -0.92110000
C       -0.30360000      -2.08880000      -2.33440000
C       -0.39440000      -0.56640000      -2.22940000
O       -1.06850000       0.27340000      -2.74590000
C        2.01390000      -0.24850000      -1.41660000
O        2.73840000       0.55320000      -0.88920000
H        1.01110000       2.03290000      -0.08050000
H       -0.62080000       1.83300000      -0.79350000
H       -0.41820000       1.88520000       0.97720000
H        1.23440000      -2.70570000      -0.78770000
H       -0.36970000      -2.29500000      -0.12480000
H        0.38830000      -2.39100000      -3.12850000
H       -1.24680000      -2.62120000      -2.47430000
H        2.36140000      -0.86390000      -2.27970000
