19
Properties=species:S:1:pos:R:3 gdb_124767=T pbc="F F F"
C        0.31870000       1.12110000      -0.73070000
C        0.04760000       0.00230000       0.27840000
O        0.25730000       0.45020000       1.61920000
C       -1.31760000      -0.61360000       0.13200000
C       -2.19810000      -0.56890000      -0.93420000
N       -3.29090000      -1.29240000      -0.58400000
C       -4.51030000      -1.48250000      -1.33920000
N       -3.18980000      -1.80130000       0.65980000
C       -1.99870000      -1.39840000       1.09240000
H        1.30520000       1.55250000      -0.54420000
H        0.29530000       0.74400000      -1.75860000
H       -0.43070000       1.91580000      -0.64180000
H        0.81400000      -0.77250000       0.14520000
H       -0.48300000       1.02510000       1.84470000
H       -2.13030000      -0.09300000      -1.89970000
H       -4.31180000      -1.29340000      -2.39590000
H       -4.85060000      -2.51150000      -1.21220000
H       -5.29890000      -0.80500000      -0.99520000
H       -1.65670000      -1.67740000       2.07790000
