16
Properties=species:S:1:pos:R:3 gdb_22571=T pbc="F F F"
O       -0.05590000       1.36770000       0.13170000
N        0.05770000      -0.02150000       0.09490000
C       -1.07750000      -0.61050000      -0.04180000
C       -1.07530000      -2.11850000      -0.07660000
C       -2.09000000      -2.64630000      -1.10310000
C       -3.46850000      -2.01670000      -0.93430000
O       -4.49410000      -2.61290000      -1.19330000
C       -3.48660000      -0.60460000      -0.48650000
C       -2.37310000       0.05720000      -0.12090000
H        0.85650000       1.64480000       0.26760000
H       -0.06630000      -2.48090000      -0.28430000
H       -1.35450000      -2.48790000       0.91960000
H       -1.75030000      -2.40110000      -2.11900000
H       -2.19600000      -3.73210000      -1.05180000
H       -4.45850000      -0.12100000      -0.49720000
H       -2.40740000       1.10840000       0.14050000
