16
Properties=species:S:1:pos:R:3 gdb_123856=T pbc="F F F"
C        0.11710000       1.56310000      -0.17810000
C        1.60210000       1.53860000       0.29290000
C        1.51880000      -0.00600000       0.52470000
C       -0.00140000       0.03600000       0.07170000
N        0.44260000      -0.79310000      -1.07150000
N        0.18860000      -1.26470000      -2.30310000
N        1.36190000      -1.66060000      -2.74590000
C        2.35520000      -1.39350000      -1.83780000
C        1.74580000      -0.82740000      -0.73930000
H       -0.53620000       2.14220000       0.47740000
H       -0.06670000       1.86360000      -1.21050000
H        2.35080000       1.85410000      -0.43470000
H        1.76190000       2.09090000       1.22100000
H        1.84860000      -0.41050000       1.47930000
H       -0.84350000      -0.36440000       0.63320000
H        3.38060000      -1.64650000      -2.04700000
