17
Properties=species:S:1:pos:R:3 gdb_90195=T pbc="F F F"
O       -0.01480000       1.41430000       0.05040000
C       -0.00470000       0.00110000      -0.00180000
C        0.52960000      -0.67770000       1.34020000
C       -0.78220000      -1.34030000       1.66460000
O       -1.47680000      -2.18960000       2.61280000
C       -2.47400000      -1.86220000       1.53430000
C       -1.98850000      -0.40210000       1.37780000
C       -1.48280000      -0.49120000      -0.07810000
C       -1.43220000      -1.95920000       0.39510000
H        0.89500000       1.72760000       0.04240000
H        0.57730000      -0.35360000      -0.86460000
H        1.35360000      -1.37440000       1.16450000
H        0.83860000       0.08800000       2.05630000
H       -3.46500000      -2.29550000       1.65870000
H       -2.26930000       0.46520000       1.97150000
H       -2.05570000      -0.14810000      -0.93870000
H       -1.08440000      -2.85520000      -0.11770000
