18
Properties=species:S:1:pos:R:3 gdb_6590=T pbc="F F F"
C       -0.02060000       1.46850000       0.01400000
C        0.00230000      -0.03520000       0.00040000
C        0.62880000      -0.96280000      -1.08710000
C        0.03100000      -1.93320000      -0.01680000
C        0.64490000      -0.98200000       1.06130000
C       -1.22400000      -1.00080000       0.00100000
C        0.05280000      -3.36730000      -0.02980000
C        0.07100000      -4.57050000      -0.04080000
H        0.99550000       1.87830000       0.00910000
H       -0.54510000       1.86270000      -0.86330000
H       -0.53010000       1.84700000       0.90700000
H        0.14520000      -0.97120000      -2.06780000
H        1.71890000      -0.95560000      -1.17500000
H        1.73610000      -0.97630000       1.13300000
H        0.17620000      -1.00800000       2.04910000
H       -1.83120000      -1.02830000       0.91020000
H       -1.84500000      -1.01200000      -0.89910000
H        0.08720000      -5.63190000      -0.05040000
