21
Properties=species:S:1:pos:R:3 gdb_61442=T pbc="F F F"
C       -0.80020000       0.91220000       0.27250000
C        0.40500000       0.04100000      -0.00900000
O        1.32880000      -0.06530000       0.76530000
C        0.39000000      -0.76130000      -1.30870000
C       -0.09790000      -2.20440000      -1.05080000
O       -1.43390000      -2.20990000      -0.54360000
C        0.04550000      -3.07380000      -2.27840000
C        1.31810000      -3.84740000      -2.51940000
C        0.05460000      -4.57370000      -2.13500000
H       -0.69330000       1.40890000       1.23760000
H       -0.92760000       1.65930000      -0.51950000
H       -1.69300000       0.27720000       0.26750000
H       -0.25310000      -0.29330000      -2.06380000
H        1.41320000      -0.80100000      -1.69380000
H        0.51200000      -2.62330000      -0.24160000
H       -2.03310000      -2.12940000      -1.29360000
H       -0.44440000      -2.67220000      -3.16490000
H        1.67850000      -3.93610000      -3.53800000
H        2.10480000      -3.76910000      -1.77600000
H       -0.01510000      -4.97800000      -1.13090000
H       -0.45010000      -5.16630000      -2.88970000
