15
Properties=species:S:1:pos:R:3 gdb_2216=T pbc="F F F"
O        0.06190000       1.43400000       0.19700000
C        0.01400000       0.05520000      -0.00550000
C        0.37140000      -0.50750000      -1.41130000
C       -0.99400000      -1.26900000      -1.44740000
C       -1.32810000      -0.72770000      -0.03870000
O       -0.87420000      -1.60890000       1.01000000
C        0.36420000      -0.87820000       1.17380000
H        0.94130000       1.74730000      -0.04160000
H        0.43400000       0.28770000      -2.15830000
H        1.27610000      -1.11870000      -1.46590000
H       -1.66730000      -0.91110000      -2.23010000
H       -0.93930000      -2.35810000      -1.49030000
H       -2.31370000      -0.30100000       0.16030000
H        1.24710000      -1.52220000       1.07220000
H        0.39760000      -0.34990000       2.13510000
