16
Properties=species:S:1:pos:R:3 gdb_45004=T pbc="F F F"
N        0.03430000       0.68080000      -1.10750000
C       -0.04230000      -0.08820000      -0.11180000
C       -1.34800000      -0.64040000       0.39520000
C       -1.23530000      -2.10520000       0.75950000
C       -0.36300000      -2.99950000      -0.05820000
C        0.10500000      -2.54090000       1.31990000
C        1.17590000      -1.52470000       1.44770000
O        2.10570000      -1.59900000       2.19680000
O        1.09040000      -0.41810000       0.61720000
H        1.00360000       0.96510000      -1.26530000
H       -1.64140000      -0.06570000       1.28380000
H       -2.09930000      -0.46350000      -0.37670000
H       -2.11360000      -2.54050000       1.22370000
H       -0.62390000      -4.04750000      -0.14310000
H        0.13400000      -2.58760000      -0.92970000
H        0.14230000      -3.27990000       2.10930000
