21
Properties=species:S:1:pos:R:3 gdb_60595=T pbc="F F F"
O       -0.23060000       1.48250000       0.14130000
C       -0.05440000       0.07490000      -0.00570000
C        0.68900000      -0.28050000      -1.27640000
C        0.32200000      -1.52340000      -2.05050000
C        0.00100000      -0.16070000      -2.61000000
C        0.60120000      -0.54960000       1.22930000
C        1.94380000       0.04320000       1.71960000
O        1.38440000       0.38250000       2.99860000
C        0.07840000      -0.10020000       2.61170000
H        0.62320000       1.90880000       0.01300000
H       -1.07780000      -0.31730000      -0.08090000
H        1.74840000      -0.02850000      -1.25670000
H        1.11870000      -2.09860000      -2.50860000
H       -0.50100000      -2.12570000      -1.67930000
H       -1.03500000       0.16060000      -2.60930000
H        0.57640000       0.19680000      -3.45660000
H        0.63430000      -1.63480000       1.10380000
H        2.78040000      -0.66100000       1.80540000
H        2.29920000       0.93380000       1.17940000
H       -0.65910000       0.70910000       2.57530000
H       -0.27610000      -0.89570000       3.27790000
