21
Properties=species:S:1:pos:R:3 gdb_79152=T pbc="F F F"
C       -0.15330000       1.52890000      -0.01890000
C        0.03750000       0.01110000      -0.01060000
C        0.98120000      -0.52950000      -1.12640000
C        2.02940000      -1.23790000      -0.26860000
C        1.30800000      -1.95790000       0.92450000
C        2.52350000      -1.65160000       1.83500000
O        3.70560000      -2.40260000       1.75210000
C        2.32860000      -0.36250000       0.99780000
C        0.78620000      -0.51580000       1.21870000
H        0.81000000       2.04840000       0.03990000
H       -0.65380000       1.86000000      -0.93500000
H       -0.76170000       1.85890000       0.83040000
H       -0.94770000      -0.46680000      -0.07640000
H        0.47760000      -1.21460000      -1.81610000
H        1.41690000       0.27800000      -1.72550000
H        2.84860000      -1.73640000      -0.79330000
H        0.70980000      -2.87050000       0.87450000
H        2.30630000      -1.56180000       2.90290000
H        3.94170000      -2.51040000       0.82530000
H        2.91170000       0.55990000       1.03500000
H        0.37240000      -0.29700000       2.20610000
