17
Properties=species:S:1:pos:R:3 gdb_78646=T pbc="F F F"
C       -0.01080000       1.46300000       0.07490000
C       -0.01230000      -0.03270000      -0.02070000
C       -0.91410000      -0.94310000       0.83160000
C        0.57440000      -1.09210000       0.94780000
C        0.46450000      -2.13390000      -0.24320000
C       -1.04910000      -2.29300000       0.11610000
O       -1.35820000      -3.36620000       0.96750000
C        0.48220000      -0.89080000      -1.14760000
O        0.93200000      -0.64560000      -2.23240000
H        0.92470000       1.87180000      -0.31850000
H       -0.83340000       1.89320000      -0.50560000
H       -0.12260000       1.79650000       1.11120000
H       -1.60690000      -0.49490000       1.53520000
H        1.30200000      -0.92890000       1.72800000
H        1.09380000      -2.99820000      -0.43620000
H       -1.74600000      -2.36750000      -0.72450000
H       -0.77980000      -3.30950000       1.73820000
