19
Properties=species:S:1:pos:R:3 gdb_8536=T pbc="F F F"
C       -0.10070000       1.59710000      -0.01880000
C       -0.04410000       0.07740000      -0.01250000
C        1.17350000      -0.63000000      -0.62960000
N        2.07400000      -0.25610000       0.57950000
C        2.50360000      -1.71270000       0.69080000
C        1.04390000      -1.89770000       0.28020000
C        0.24920000      -3.15730000       0.04930000
C        0.67730000      -0.64120000       1.13940000
H        0.86870000       2.02000000       0.25590000
H       -0.37340000       1.97460000      -1.01050000
H       -0.85070000       1.96380000       0.69070000
H       -1.00640000      -0.37040000      -0.28530000
H        1.57420000      -0.58010000      -1.64540000
H        3.28320000      -1.99390000      -0.02670000
H        2.79720000      -2.00490000       1.70570000
H        0.21720000      -3.77200000       0.95570000
H       -0.78330000      -2.93310000      -0.23970000
H        0.69610000      -3.76190000      -0.74780000
H        0.49100000      -0.60450000       2.21600000
