19
Properties=species:S:1:pos:R:3 gdb_56682=T pbc="F F F"
C       -0.09570000       1.55920000       0.14790000
C        0.01490000       0.04360000      -0.00650000
C        1.22260000      -0.40540000      -0.87070000
O        1.95530000      -0.82320000       0.29520000
C        0.81100000      -0.62460000       1.14770000
C       -1.36300000      -0.57510000      -0.36140000
N       -1.97300000      -0.13040000      -1.61760000
C       -1.29670000      -2.04780000      -0.38920000
N       -1.22310000      -3.20040000      -0.41460000
H        0.87540000       1.98090000       0.42210000
H       -0.41080000       2.04200000      -0.78300000
H       -0.81240000       1.82820000       0.93270000
H        1.02090000      -1.24690000      -1.54780000
H        1.74170000       0.38610000      -1.42430000
H        1.04010000       0.02020000       2.00440000
H        0.40110000      -1.57560000       1.50890000
H       -2.06270000      -0.31150000       0.44390000
H       -2.14190000       0.86890000      -1.58770000
H       -1.35050000      -0.31430000      -2.39910000
