16
Properties=species:S:1:pos:R:3 gdb_42853=T pbc="F F F"
O       -0.66500000       0.11750000       0.35990000
C       -0.23250000       1.20740000       0.18830000
C       -0.47930000       2.69690000       0.54630000
C        1.04310000       2.72160000       0.90410000
C        0.95030000       1.97050000      -0.46460000
N       -0.16070000       2.90280000      -0.92850000
C        0.11530000       4.22890000      -1.49100000
C        1.04170000       5.19260000      -0.87290000
C        1.77670000       6.04310000      -0.44430000
H       -1.31930000       3.18440000       1.03700000
H        1.50910000       3.70020000       0.86000000
H        1.36930000       2.14850000       1.77720000
H        1.74230000       1.62870000      -1.12800000
H        0.45670000       4.04780000      -2.51780000
H       -0.86240000       4.71780000      -1.58550000
H        2.43090000       6.78070000      -0.04880000
