16
Properties=species:S:1:pos:R:3 gdb_31185=T pbc="F F F"
O       -0.11960000       1.38980000       0.39510000
C        0.00700000       0.04210000      -0.04720000
C       -1.35670000      -0.57450000      -0.00790000
C       -1.79550000      -1.89630000       0.03770000
C       -0.95870000      -3.07970000       0.12310000
O       -1.36530000      -4.22350000       0.14370000
C       -3.22720000      -1.86420000      -0.00660000
C       -3.60440000      -0.55230000      -0.07350000
N       -2.45730000       0.21640000      -0.08380000
H        0.69950000       1.85130000       0.19450000
H        0.40970000       0.00910000      -1.07250000
H        0.69630000      -0.53070000       0.58880000
H        0.13640000      -2.87300000       0.17510000
H       -3.87030000      -2.72900000       0.01500000
H       -4.57750000      -0.08990000      -0.10770000
H       -2.39940000       1.22150000      -0.07040000
