23
Properties=species:S:1:pos:R:3 gdb_119700=T pbc="F F F"
C       -0.02570000       1.56070000       0.11470000
C        0.07860000       0.05060000       0.17260000
C        1.29100000      -0.75830000      -0.21710000
C        2.59210000      -0.06940000       0.21000000
C        2.08000000      -0.05050000       1.68480000
C        0.78490000      -0.75620000       1.23670000
C        0.10560000      -1.84580000       2.02070000
C       -0.66140000      -1.31580000       3.22990000
O       -1.22430000      -2.42740000       3.91110000
H        0.89570000       2.05700000       0.42980000
H       -0.24640000       1.89630000      -0.90490000
H       -0.83150000       1.92290000       0.76320000
H       -0.83870000      -0.44570000      -0.14310000
H        1.22340000      -1.55290000      -0.95240000
H        3.46770000      -0.71090000       0.08890000
H        2.81060000       0.89700000      -0.25600000
H        2.68680000      -0.68370000       2.33750000
H        1.97060000       0.92750000       2.16500000
H       -0.59530000      -2.39280000       1.37850000
H        0.84260000      -2.57740000       2.37670000
H        0.02190000      -0.75160000       3.88550000
H       -1.44150000      -0.61450000       2.89280000
H       -1.70150000      -2.09970000       4.67880000
