17
Properties=species:S:1:pos:R:3 gdb_74771=T pbc="F F F"
C       -0.02200000       1.46520000       0.04520000
C       -0.00160000      -0.01980000      -0.02670000
C        0.00820000      -0.88950000      -1.04100000
C        0.01430000      -2.23540000      -0.29940000
O       -0.97240000      -2.00160000       0.76300000
C        0.00040000      -0.99110000       1.18000000
C        1.13660000      -1.99580000       0.77510000
C        1.34430000      -3.13400000       1.74100000
O        2.43460000      -3.52850000       2.07500000
H        0.84830000       1.85020000       0.59150000
H       -0.02070000       1.91300000      -0.95200000
H       -0.91060000       1.82400000       0.57960000
H        0.00430000      -0.73230000      -2.10940000
H       -0.11100000      -3.17240000      -0.84010000
H       -0.13830000      -0.61150000       2.19250000
H        2.09230000      -1.59090000       0.43940000
H        0.41160000      -3.59270000       2.12940000
