18
Properties=species:S:1:pos:R:3 gdb_62166=T pbc="F F F"
C       -0.12790000       1.73340000       0.10490000
C       -0.08860000       0.21070000       0.07520000
C       -1.43590000      -0.44400000       0.38120000
O       -2.48890000       0.08170000      -0.40990000
C       -2.73020000      -0.51320000      -1.60370000
N       -3.58450000      -0.01200000      -2.38170000
O        0.30990000      -0.23790000      -1.23690000
C        1.58770000      -0.62030000      -1.42380000
O        2.00290000      -0.99540000      -2.47770000
H        0.85940000       2.14540000      -0.12010000
H       -0.84350000       2.10780000      -0.62950000
H       -0.43100000       2.08540000       1.09570000
H        0.63410000      -0.16830000       0.81230000
H       -1.35280000      -1.53040000       0.25110000
H       -1.70530000      -0.24040000       1.42180000
H       -2.13440000      -1.41870000      -1.76900000
H       -3.66690000      -0.58310000      -3.22010000
H        2.19420000      -0.55470000      -0.49870000
