17
Properties=species:S:1:pos:R:3 gdb_124933=T pbc="F F F"
C        0.05870000       1.52590000      -0.02910000
C       -0.02630000       0.02480000      -0.01480000
C       -1.19990000      -0.67590000       0.00710000
C       -2.54610000      -0.00830000       0.01920000
C       -1.14500000      -2.13550000       0.01910000
O       -2.13140000      -2.86850000       0.03930000
C        0.22160000      -2.67390000       0.00610000
N        1.31540000      -1.97480000      -0.01470000
N        1.16610000      -0.64370000      -0.02470000
H        1.09510000       1.87500000      -0.05000000
H       -0.45400000       1.93570000      -0.90480000
H       -0.42360000       1.95090000       0.85670000
H       -2.70450000       0.61600000      -0.86830000
H       -3.31300000      -0.78450000       0.03920000
H       -2.67870000       0.63650000       0.89610000
H        0.34210000      -3.75290000       0.01440000
H        2.03490000      -0.13390000      -0.04090000
