19
Properties=species:S:1:pos:R:3 gdb_69254=T pbc="F F F"
C        0.01080000       1.49110000      -0.06330000
C       -0.03170000      -0.01490000       0.01900000
C       -0.83890000      -0.72260000       1.05620000
C        0.69420000      -0.74110000       1.14510000
C        1.47660000      -1.97520000       0.84620000
O        2.27600000      -2.43290000       1.63310000
C        1.27310000      -2.55090000      -0.54820000
C        1.11620000      -1.40080000      -1.55160000
O       -0.03480000      -0.63000000      -1.24760000
H        0.93670000       1.82870000      -0.54010000
H       -0.83160000       1.85830000      -0.65790000
H       -0.04680000       1.94090000       0.93200000
H       -1.35370000      -0.14980000       1.81940000
H       -1.33920000      -1.63310000       0.74770000
H        1.12520000      -0.14390000       1.94150000
H        2.12370000      -3.19580000      -0.78330000
H        0.36270000      -3.16240000      -0.57380000
H        2.02080000      -0.77300000      -1.55440000
H        0.96600000      -1.77840000      -2.56640000
