20
Properties=species:S:1:pos:R:3 gdb_70203=T pbc="F F F"
C        0.05790000       1.55990000      -0.07330000
C        0.01040000       0.05070000       0.03120000
C       -1.27850000      -0.57490000      -0.48410000
C       -1.34710000      -2.10280000      -0.32650000
C       -1.02440000      -2.55220000       1.08920000
O       -1.69560000      -3.36830000       1.67550000
C        0.20570000      -1.92730000       1.74920000
C        0.73560000      -0.64490000       1.13140000
N        1.30040000      -0.61830000      -0.23300000
H        1.01860000       1.93860000       0.28310000
H       -0.06490000       1.88060000      -1.11410000
H       -0.74190000       2.02060000       0.51750000
H       -2.11960000      -0.12160000       0.05660000
H       -1.41850000      -0.30820000      -1.53920000
H       -2.33430000      -2.48840000      -0.59100000
H       -0.62860000      -2.58560000      -1.00400000
H       -0.05170000      -1.76320000       2.80080000
H        0.99410000      -2.69460000       1.76020000
H        1.30750000      -0.03370000       1.82750000
H        1.16530000      -1.51670000      -0.69070000
