18
Properties=species:S:1:pos:R:3 gdb_37457=T pbc="F F F"
C        0.03830000       1.48380000       0.11220000
C        1.35870000       0.75040000       0.06360000
C        0.06630000      -0.02390000       0.09060000
N       -0.01900000      -0.88040000      -1.09660000
C        0.05460000      -0.42110000      -2.50190000
C        0.27430000       1.01340000      -2.93700000
O        1.45820000       1.47500000      -2.29070000
C        1.92580000       0.49340000      -1.35150000
C        1.27740000      -0.84210000      -1.77920000
H       -0.24470000       1.92530000       1.06300000
H       -0.25880000       2.06680000      -0.74560000
H        2.04290000       0.78860000       0.90350000
H       -0.26950000      -0.54410000       0.98120000
H       -0.48400000      -1.06770000      -3.18940000
H        0.43020000       1.02280000      -4.02510000
H       -0.56960000       1.67980000      -2.71930000
H        3.01730000       0.50700000      -1.37680000
H        1.84550000      -1.75380000      -1.93530000
