16
Properties=species:S:1:pos:R:3 gdb_19143=T pbc="F F F"
O       -0.02590000       0.06780000       0.63520000
C        0.04460000       1.07050000      -0.03740000
C        1.25790000       1.93870000      -0.08580000
C        1.78070000       2.31830000       1.27800000
N        2.48580000       1.33950000       0.46790000
C        1.45750000       2.87980000      -1.23790000
C        0.83990000       2.64950000      -2.56880000
N        0.37900000       3.75940000      -1.71620000
H       -0.81980000       1.39640000      -0.65330000
H        2.27080000       3.28270000       1.38190000
H        1.21620000       1.97780000       2.14140000
H        2.24240000       0.40300000       0.79380000
H        2.43070000       3.36310000      -1.20430000
H        1.36600000       2.95290000      -3.46910000
H        0.19910000       1.78060000      -2.69830000
H       -0.50430000       3.52480000      -1.26840000
