21
Properties=species:S:1:pos:R:3 gdb_62620=T pbc="F F F"
C        0.03660000       1.53210000       0.01720000
C        0.01920000       0.00640000      -0.02200000
C       -1.39900000      -0.54520000       0.13340000
C        0.78350000      -0.69200000      -1.15760000
C        2.23910000      -0.76510000      -0.67200000
O        2.32180000      -0.09980000       0.58670000
C        1.04530000      -0.74030000       0.91510000
C        0.84320000      -0.95650000       2.38230000
C        1.27100000      -1.80370000      -0.23490000
H        1.05980000       1.90920000      -0.02310000
H       -0.52170000       1.94440000      -0.83130000
H       -0.43530000       1.91090000       0.93170000
H       -2.04100000      -0.20290000      -0.68580000
H       -1.41220000      -1.63990000       0.12970000
H       -1.85390000      -0.20090000       1.06910000
H        0.50970000      -0.76630000      -2.20360000
H        3.11180000      -0.79650000      -1.31070000
H        0.83410000       0.00520000       2.90670000
H       -0.10720000      -1.46260000       2.57430000
H        1.65280000      -1.56310000       2.79770000
H        1.24560000      -2.88290000      -0.29110000
