19
Properties=species:S:1:pos:R:3 gdb_85520=T pbc="F F F"
C       -0.17920000       1.51610000       0.04940000
C        0.02780000      -0.00440000       0.02610000
C        0.74760000      -0.45270000      -1.26400000
C        1.04740000      -1.94020000      -1.27150000
O        0.72410000      -2.66790000      -2.18050000
C        1.79800000      -2.48440000      -0.05520000
C        1.65220000      -1.66030000       1.20740000
O        2.22030000      -0.34370000       1.19240000
C        0.79260000      -0.46910000       1.25090000
H        0.78500000       2.03470000       0.05330000
H       -0.74180000       1.84860000      -0.82830000
H       -0.73330000       1.82550000       0.94170000
H       -0.95830000      -0.48980000       0.06220000
H        0.15590000      -0.21370000      -2.15040000
H        1.70260000       0.08370000      -1.32640000
H        1.46050000      -3.51150000       0.11380000
H        2.86230000      -2.54860000      -0.32110000
H        1.83500000      -2.20120000       2.13610000
H        0.36060000      -0.17650000       2.20950000
