19
Properties=species:S:1:pos:R:3 gdb_69810=T pbc="F F F"
C       -0.02360000       1.51920000      -0.00280000
C        0.00300000       0.00480000       0.00520000
N       -0.79130000      -0.70630000       1.04340000
C        0.67630000      -0.72570000       1.12520000
C        1.40000000      -2.01450000       0.84570000
N        0.61010000      -3.20710000       0.51800000
C        1.40360000      -2.54430000      -0.55150000
C        0.66320000      -1.79050000      -1.58780000
C        0.02800000      -0.64270000      -1.33320000
H        0.82550000       1.92980000      -0.55980000
H       -0.94060000       1.89000000      -0.47650000
H        0.01560000       1.92060000       1.01530000
H       -1.15040000      -0.02210000       1.70720000
H        1.14730000      -0.10690000       1.88610000
H        2.31050000      -2.15130000       1.42430000
H        1.11180000      -4.03420000       0.83440000
H        2.29220000      -3.06950000      -0.89480000
H        0.65970000      -2.19800000      -2.59530000
H       -0.48810000      -0.12130000      -2.13630000
