18
Properties=species:S:1:pos:R:3 gdb_39016=T pbc="F F F"
C        0.01680000       1.45340000      -0.18460000
C        1.30260000       0.73300000      -0.00360000
C        2.07760000       0.85470000       1.31850000
N        1.22260000       1.01650000       2.50520000
C        0.20020000       0.27560000       2.41680000
N       -0.98400000       0.16010000       3.13460000
C       -1.71280000      -0.33970000       1.93170000
C       -0.31840000      -0.55770000       1.26410000
N        0.02400000      -0.01230000      -0.04490000
H       -0.32770000       2.06340000       0.64650000
H       -0.28590000       1.80610000      -1.16580000
H        1.93610000       0.56500000      -0.87250000
H        2.72890000      -0.02560000       1.42580000
H        2.74400000       1.72180000       1.25320000
H       -1.33040000       0.90020000       3.73270000
H       -2.32330000      -1.22660000       2.11540000
H       -2.30650000       0.42790000       1.42500000
H       -0.01050000      -1.60640000       1.28660000
