17
Properties=species:S:1:pos:R:3 gdb_128715=T pbc="F F F"
C       -0.00030000       1.33930000      -0.02460000
O       -0.01180000      -0.08930000       0.03510000
C       -1.22080000      -0.66200000      -0.01920000
N       -2.34480000       0.00150000      -0.13560000
O       -3.33600000      -0.98670000      -0.14880000
C       -2.76370000      -2.20530000      -0.00860000
C       -3.65820000      -3.38960000       0.02780000
C       -1.41100000      -2.07570000       0.06570000
N       -0.42710000      -3.07080000       0.23900000
H        1.04780000       1.63350000       0.03800000
H       -0.43990000       1.68970000      -0.96340000
H       -0.56730000       1.76460000       0.80910000
H       -4.51970000      -3.20250000       0.67590000
H       -4.04220000      -3.64570000      -0.96670000
H       -3.10470000      -4.24890000       0.41510000
H       -0.31780000      -3.65380000      -0.58360000
H        0.47090000      -2.64390000       0.43540000
