16
Properties=species:S:1:pos:R:3 gdb_19603=T pbc="F F F"
C        0.07950000       1.59150000       0.05700000
C        0.09390000       0.07080000       0.00320000
C        0.80050000      -0.67510000      -1.14210000
C        1.27540000      -1.75580000      -0.23290000
C        2.30040000      -0.75100000      -0.80930000
C        2.45490000      -0.21110000       0.57720000
O        3.37650000       0.21970000       1.21230000
C        1.04790000      -0.72650000       0.94880000
H        1.08610000       2.00860000      -0.04690000
H       -0.54090000       2.00340000      -0.74610000
H       -0.33130000       1.94430000       1.00910000
H       -0.92110000      -0.32970000       0.10030000
H        0.48950000      -0.76220000      -2.17630000
H        1.30460000      -2.83290000      -0.27740000
H        3.05100000      -0.92520000      -1.56780000
H        0.79160000      -0.94830000       1.98120000
