17
Properties=species:S:1:pos:R:3 gdb_57830=T pbc="F F F"
C       -0.24030000       1.64110000      -0.00080000
C       -0.09780000       0.10410000       0.09470000
C        0.68830000      -0.32290000       1.33600000
C       -1.48370000      -0.51350000       0.08770000
O       -2.05340000      -0.94160000       1.06200000
C       -2.19600000      -0.58040000      -1.28970000
O       -1.62770000      -0.25690000      -2.31040000
C       -3.55700000      -1.06650000      -1.26430000
C       -4.69450000      -1.45960000      -1.26900000
H        0.75200000       2.10010000      -0.03260000
H       -0.77940000       1.93970000      -0.90290000
H       -0.76910000       2.03700000       0.87250000
H        0.40740000      -0.23190000      -0.81770000
H        0.17030000      -0.01480000       2.24810000
H        0.81010000      -1.40900000       1.37700000
H        1.68220000       0.13390000       1.32910000
H       -5.69910000      -1.80800000      -1.26970000
