19
Properties=species:S:1:pos:R:3 gdb_114052=T pbc="F F F"
O       -0.11650000       1.46130000      -0.10560000
C        0.04020000       0.06090000       0.10910000
C       -1.32640000      -0.57190000      -0.08520000
C       -1.92170000      -0.65980000      -1.52770000
C       -2.14950000      -2.16000000      -1.32710000
O       -3.22760000      -2.87480000      -1.81290000
C       -0.88210000      -2.87240000      -1.03420000
O        0.36610000      -2.52950000      -1.57810000
C       -1.48830000      -2.08710000       0.09350000
H        0.75660000       1.86340000      -0.09460000
H        0.76170000      -0.37790000      -0.58920000
H        0.39330000      -0.14600000       1.13340000
H       -2.03160000      -0.04460000       0.56540000
H       -2.85360000      -0.09760000      -1.62960000
H       -1.25520000      -0.38530000      -2.35030000
H       -4.03570000      -2.41750000      -1.55460000
H       -1.03670000      -3.94590000      -0.91280000
H        0.35790000      -2.77170000      -2.51060000
H       -1.74790000      -2.57520000       1.02640000
