21
Properties=species:S:1:pos:R:3 gdb_58935=T pbc="F F F"
C        0.06000000       1.43880000      -0.23670000
C       -0.02600000      -0.06130000       0.08910000
C        0.69680000      -0.38660000       1.40610000
C       -1.45920000      -0.52780000       0.10140000
C       -2.59270000      -0.15400000       1.06770000
C       -3.38040000      -1.29930000       0.38470000
O       -3.61010000      -0.80090000      -0.96500000
C       -2.20930000      -0.98020000      -1.16900000
C       -2.01410000      -1.94850000      -0.05220000
H        1.10250000       1.76860000      -0.29160000
H       -0.42120000       1.66610000      -1.19270000
H       -0.43670000       2.03500000       0.53710000
H        0.48620000      -0.61090000      -0.71480000
H        0.24860000       0.15740000       2.24500000
H        0.64530000      -1.45590000       1.63400000
H        1.75240000      -0.10100000       1.35290000
H       -2.33520000      -0.40210000       2.10090000
H       -3.04320000       0.84240000       1.01060000
H       -4.25180000      -1.77690000       0.82750000
H       -1.80900000      -0.92910000      -2.17360000
H       -1.57540000      -2.93430000       0.02250000
