19
Properties=species:S:1:pos:R:3 gdb_107543=T pbc="F F F"
C       -0.01720000       1.51530000       0.26750000
C        0.02310000       0.02360000      -0.09460000
C       -1.34190000      -0.58400000      -0.17880000
O       -2.05550000      -0.84580000       1.03980000
C       -1.88200000      -1.92390000       0.10840000
C       -2.98270000      -1.78070000      -0.94710000
C       -2.42640000      -0.34210000      -1.27520000
C       -3.34290000       0.82810000      -1.04110000
O       -3.56770000       1.69150000      -1.85360000
H        0.99410000       1.92760000       0.32280000
H       -0.57290000       2.09150000      -0.47940000
H       -0.50000000       1.66430000       1.23760000
H        0.53000000      -0.11560000      -1.05740000
H        0.59810000      -0.53140000       0.65500000
H       -1.39790000      -2.81960000       0.48050000
H       -2.87590000      -2.45550000      -1.79860000
H       -4.00360000      -1.83740000      -0.56050000
H       -2.00300000      -0.27820000      -2.27960000
H       -3.80780000       0.84690000      -0.03210000
