18
Properties=species:S:1:pos:R:3 gdb_62546=T pbc="F F F"
C       -0.06750000       1.55220000       0.00780000
C       -0.05900000       0.02610000      -0.00430000
C       -1.43580000      -0.56470000       0.29680000
C        0.74840000      -0.62080000      -1.21220000
N        1.74280000      -1.05480000      -0.24130000
C        1.06320000      -0.60690000       0.86900000
O        1.26720000      -0.69340000       2.04850000
C        0.06430000      -1.72090000      -1.98330000
O        0.30420000      -2.89350000      -1.84770000
H        0.92320000       1.96160000      -0.21210000
H       -0.77520000       1.94820000      -0.72860000
H       -0.36970000       1.91450000       0.99520000
H       -2.19040000      -0.19700000      -0.40680000
H       -1.43040000      -1.65790000       0.25970000
H       -1.74110000      -0.26960000       1.30500000
H        1.11170000       0.12940000      -1.92870000
H        2.43040000      -1.78970000      -0.32740000
H       -0.68970000      -1.36130000      -2.71950000
