17
Properties=species:S:1:pos:R:3 gdb_72079=T pbc="F F F"
O       -0.09690000       1.34510000       0.06260000
C        0.03300000      -0.02880000       0.04090000
C        1.10080000      -0.77110000       0.84640000
C        0.65640000      -2.20740000       0.45740000
C       -0.86110000      -2.17220000       0.77200000
C       -1.17950000      -0.89320000      -0.00620000
C       -0.24440000      -0.86400000      -1.22970000
C        0.62920000      -2.06730000      -1.08420000
O        1.18800000      -2.73310000      -1.91560000
H        0.68970000       1.73180000      -0.33880000
H        2.12140000      -0.54540000       0.51730000
H        1.02040000      -0.56960000       1.91990000
H        1.24050000      -3.04000000       0.84090000
H       -1.38950000      -3.05030000       0.38710000
H       -1.07110000      -2.07600000       1.84220000
H       -2.16800000      -0.46010000      -0.07800000
H       -0.52390000      -0.41310000      -2.17050000
