21
Properties=species:S:1:pos:R:3 gdb_58717=T pbc="F F F"
C       -0.20200000       1.48900000       0.07790000
C        0.08310000      -0.01750000      -0.00190000
C        0.84200000      -0.37430000      -1.29000000
C        0.78710000      -0.53040000       1.27520000
C       -0.05740000      -0.55110000       2.56880000
O        0.11400000      -1.97880000       2.70850000
C        0.81870000      -2.07430000       1.46160000
C        2.15820000       0.08490000       1.45420000
O        2.45750000       0.86820000       2.31950000
H        0.72540000       2.07140000       0.10170000
H       -0.77870000       1.81630000      -0.79270000
H       -0.77520000       1.74470000       0.97440000
H       -0.88150000      -0.54290000      -0.03090000
H        1.78080000       0.18230000      -1.37860000
H        1.07720000      -1.44260000      -1.34350000
H        0.23450000      -0.12570000      -2.16570000
H        0.36290000       0.00540000       3.41120000
H       -1.11190000      -0.27910000       2.43300000
H        0.25410000      -2.63370000       0.70310000
H        1.80870000      -2.53540000       1.57740000
H        2.91540000      -0.25290000       0.71060000
