19
Properties=species:S:1:pos:R:3 gdb_70893=T pbc="F F F"
C       -0.02640000       1.49680000       0.06400000
C        0.01960000      -0.00040000      -0.04840000
C        0.25380000      -0.76330000      -1.34530000
C        0.16890000      -2.16740000      -0.69770000
C        0.32910000      -3.41930000      -1.50800000
O        1.13090000      -2.07650000       0.36050000
C        0.62350000      -0.92710000       1.00610000
C       -0.86590000      -0.95380000       0.75300000
O       -1.09120000      -2.11640000      -0.01720000
H        0.91830000       1.95050000      -0.25650000
H       -0.82750000       1.91910000      -0.55320000
H       -0.20770000       1.81170000       1.09750000
H       -0.53280000      -0.60790000      -2.08800000
H        1.23560000      -0.57620000      -1.78730000
H        1.31160000      -3.43300000      -1.98510000
H        0.23620000      -4.29370000      -0.86030000
H       -0.44140000      -3.46580000      -2.28080000
H        1.13530000      -0.63480000       1.91190000
H       -1.65800000      -0.68500000       1.43720000
