16
Properties=species:S:1:pos:R:3 gdb_27844=T pbc="F F F"
N        0.12170000       1.39070000       0.14540000
C       -0.01250000       0.00440000       0.03160000
C       -1.17890000      -0.68190000      -0.00810000
C       -1.21160000      -2.14560000      -0.01500000
O       -2.25790000      -2.78890000      -0.04770000
C        0.10940000      -2.77650000      -0.02550000
C        1.24840000      -2.04560000       0.01450000
N        2.54700000      -2.55230000       0.11250000
H        2.56980000      -3.56090000       0.04850000
H        3.19260000      -2.14540000      -0.55460000
N        1.20030000      -0.66230000       0.01840000
H        0.77110000       1.79150000      -0.52180000
H       -0.76860000       1.86660000       0.09370000
H       -2.12430000      -0.15470000      -0.05410000
H        0.15320000      -3.85740000      -0.08500000
H        1.99200000      -0.17870000       0.41640000
