21
Properties=species:S:1:pos:R:3 gdb_83541=T pbc="F F F"
C       -0.08620000       1.62410000       0.05040000
C        0.01650000       0.10950000      -0.00690000
C        0.85190000      -0.62750000      -1.11980000
C        2.23950000      -0.00660000      -0.90160000
O        2.30150000      -0.01100000       0.54600000
C        1.04840000      -0.63550000       0.89000000
C        0.94810000      -1.78980000      -0.10920000
C        0.12940000      -3.03280000      -0.02730000
C        1.64460000      -3.10390000      -0.16540000
H        0.89610000       2.08900000       0.16370000
H       -0.55760000       2.02490000      -0.85380000
H       -0.69780000       1.93460000       0.90450000
H       -0.96630000      -0.36150000       0.07260000
H        0.49690000      -0.75240000      -2.14270000
H        3.05000000      -0.61900000      -1.31310000
H        2.33610000       1.01720000      -1.27950000
H        0.97200000      -0.73980000       1.97180000
H       -0.30750000      -3.30800000       0.92800000
H       -0.47140000      -3.31710000      -0.88600000
H        2.04940000      -3.43610000      -1.11680000
H        2.22250000      -3.42000000       0.69720000
