17
Properties=species:S:1:pos:R:3 gdb_18713=T pbc="F F F"
O       -0.04180000       1.44130000       0.09720000
C        0.02450000       0.02440000      -0.01990000
C        0.92170000      -0.58150000       1.08080000
C        0.77100000      -2.07210000       1.24250000
C       -0.37340000      -2.70210000       0.97710000
C       -1.55680000      -1.96300000       0.46960000
N       -2.00390000      -0.77560000       1.25890000
C       -1.36080000      -0.58530000      -0.05210000
H       -0.53690000       1.62420000       0.90470000
H        0.48920000      -0.15640000      -0.99650000
H        1.96190000      -0.30960000       0.87650000
H        0.65930000      -0.09520000       2.03020000
H        1.62230000      -2.62600000       1.62850000
H       -0.47130000      -3.77310000       1.12610000
H       -2.34140000      -2.56050000       0.01380000
H       -3.01170000      -0.67270000       1.16640000
H       -1.98030000      -0.25570000      -0.88340000
