17
Properties=species:S:1:pos:R:3 gdb_48872=T pbc="F F F"
O       -0.14440000      -0.01630000       0.11590000
C       -0.00710000       1.16010000      -0.11040000
C        1.30250000       1.87820000      -0.14510000
C        1.41790000       3.10200000       0.87800000
C        2.06320000       3.92040000      -0.22640000
C        3.06920000       3.08340000      -1.06050000
C        3.59130000       1.80610000      -0.49260000
C        2.57600000       1.07730000      -0.02030000
C        1.58800000       2.94220000      -1.27250000
H       -0.89200000       1.81410000      -0.29460000
H        0.42580000       3.49870000       1.11240000
H        1.96710000       2.89710000       1.80180000
H        2.10150000       5.00220000      -0.27030000
H        3.64630000       3.65800000      -1.77600000
H        4.64330000       1.55390000      -0.44780000
H        2.62100000       0.13250000       0.50370000
H        1.05370000       3.08060000      -2.20490000
