21
Properties=species:S:1:pos:R:3 gdb_90223=T pbc="F F F"
C        0.28240000       1.61870000      -0.08800000
C        0.00250000       0.13160000       0.06940000
C        0.74510000      -0.84130000      -0.93670000
C        1.34390000      -1.57630000       0.28590000
C        2.74810000      -1.27540000       0.86990000
C        2.05870000      -0.25470000       1.85890000
C        0.67130000      -0.63500000       1.26220000
C       -0.02690000      -1.90860000       1.77890000
O        0.64930000      -2.74030000       0.77890000
H        1.35680000       1.83090000      -0.11870000
H       -0.14930000       1.99500000      -1.02190000
H       -0.14820000       2.19490000       0.73840000
H       -1.08060000      -0.03040000       0.06610000
H        0.09780000      -1.46010000      -1.56160000
H        1.48310000      -0.34450000      -1.57450000
H        3.20520000      -2.14240000       1.35120000
H        3.46820000      -0.83800000       0.17280000
H        2.17910000      -0.48130000       2.92170000
H        2.35040000       0.78630000       1.70320000
H        0.23020000      -2.21880000       2.80000000
H       -1.11750000      -1.94440000       1.65940000
