26
Properties=species:S:1:pos:R:3 gdb_5811=T pbc="F F F"
C        0.06850000       1.54250000       0.15160000
C       -0.01100000       0.00500000       0.02550000
C        0.61530000      -0.59960000       1.30160000
C       -1.50580000      -0.38430000       0.01140000
C        0.73130000      -0.50660000      -1.28040000
C        2.13780000       0.11900000      -1.40920000
C        0.90440000      -2.04140000      -1.26380000
C       -0.05930000      -0.14090000      -2.55610000
H        1.08860000       1.88670000       0.34230000
H       -0.29780000       2.05320000      -0.74410000
H       -0.54980000       1.87800000       0.99130000
H        0.16500000      -0.14070000       2.18860000
H        0.44460000      -1.67730000       1.37220000
H        1.69380000      -0.42450000       1.35920000
H       -2.06100000       0.14610000      -0.76710000
H       -1.65510000      -1.45770000      -0.13980000
H       -1.96530000      -0.12550000       0.97150000
H        2.74690000      -0.03850000      -0.51400000
H        2.67180000      -0.33900000      -2.24880000
H        2.09310000       1.19450000      -1.60140000
H       -0.04380000      -2.56550000      -1.11060000
H        1.30970000      -2.37920000      -2.22390000
H        1.59950000      -2.36790000      -0.48550000
H       -0.28350000       0.92840000      -2.61450000
H        0.52950000      -0.39740000      -3.44340000
H       -1.00380000      -0.68750000      -2.62450000
