16
Properties=species:S:1:pos:R:3 gdb_125090=T pbc="F F F"
C       -0.05050000       1.59250000       0.06060000
C       -0.01070000       0.09920000      -0.00400000
C        0.00170000      -0.74180000      -1.11600000
N        0.01730000      -2.01420000      -0.64060000
N        0.02920000      -2.07370000       0.69800000
C        0.00630000      -0.79640000       1.09290000
N       -0.07050000      -0.46230000       2.44360000
C       -0.00940000      -0.49210000      -2.54780000
O       -0.00080000      -1.37750000      -3.38050000
H        0.89050000       2.01090000       0.44090000
H       -0.22920000       2.03970000      -0.92010000
H       -0.84690000       1.93110000       0.73300000
H        0.02240000      -2.85110000      -1.19970000
H        0.11770000      -1.26040000       3.03680000
H        0.52000000       0.31720000       2.70170000
H       -0.02590000       0.57720000      -2.84150000
