17
Properties=species:S:1:pos:R:3 gdb_131786=T pbc="F F F"
O        0.11510000       1.48620000      -0.04530000
C        0.07630000       0.06950000       0.00360000
C       -1.35500000      -0.48600000      -0.09500000
C       -1.40020000      -1.98190000      -0.05680000
C       -1.63290000      -2.88070000      -1.08030000
N       -1.54570000      -4.12420000      -0.55530000
N       -1.26430000      -4.11500000       0.77250000
C       -1.17740000      -2.82640000       1.05980000
O       -0.90490000      -2.38810000       2.31000000
H       -0.31100000       1.81790000       0.75150000
H        0.66490000      -0.27750000      -0.85200000
H        0.55810000      -0.31960000       0.91260000
H       -1.94250000      -0.07690000       0.73840000
H       -1.81240000      -0.11170000      -1.01670000
H       -1.85660000      -2.71860000      -2.12370000
H       -1.67020000      -5.00570000      -1.01980000
H       -0.80720000      -3.16830000       2.87000000
