19
Properties=species:S:1:pos:R:3 gdb_71006=T pbc="F F F"
O        0.00200000       1.45530000      -0.08990000
C        0.02320000       0.07200000      -0.01150000
C        0.27110000      -0.75500000       1.37420000
C       -0.42440000      -1.82140000       0.50250000
C       -1.52880000      -2.86980000       0.23040000
C       -2.01890000      -1.87660000      -0.91220000
C       -1.30910000      -0.74470000      -0.08300000
O        0.58000000      -2.04790000      -0.54100000
C        0.93450000      -0.72370000      -0.94590000
H        0.90730000       1.78360000      -0.04570000
H        1.30480000      -0.92140000       1.69040000
H       -0.34210000      -0.36130000       2.18480000
H       -1.19510000      -3.86780000      -0.06040000
H       -2.25910000      -2.93810000       1.03950000
H       -1.55560000      -2.10730000      -1.87010000
H       -3.09680000      -1.76290000      -1.04040000
H       -2.00060000      -0.36120000       0.66990000
H        0.70610000      -0.55750000      -2.00630000
H        2.00380000      -0.53300000      -0.77690000
