22
Properties=species:S:1:pos:R:3 gdb_123199=T pbc="F F F"
C       -0.10890000       1.54120000       0.01230000
C       -0.02380000       0.02460000       0.00260000
O       -1.33610000      -0.50130000       0.01240000
C       -1.37410000      -1.90920000       0.00460000
C       -2.83190000      -2.35240000       0.01620000
C       -2.98030000      -3.87550000       0.00890000
C       -4.46020000      -4.30700000       0.02070000
C       -4.62350000      -5.75920000       0.01390000
N       -4.73310000      -6.90960000       0.00840000
H        0.89360000       1.97920000       0.00500000
H       -0.65170000       1.90070000      -0.86650000
H       -0.63440000       1.89040000       0.90570000
H        0.51950000      -0.32760000      -0.89090000
H        0.53680000      -0.33790000       0.88120000
H       -0.86050000      -2.30590000      -0.88900000
H       -0.84330000      -2.31610000       0.88350000
H       -3.31860000      -1.92820000       0.90280000
H       -3.33570000      -1.91810000      -0.85590000
H       -2.49350000      -4.30030000      -0.87630000
H       -2.47660000      -4.31040000       0.87960000
H       -4.96540000      -3.90490000       0.90670000
H       -4.98240000      -3.89480000      -0.85080000
