10
Properties=species:S:1:pos:R:3 gdb_4739=T pbc="F F F"
O        0.11930000       1.33810000      -0.08520000
C        0.06950000       0.00020000      -0.07040000
C       -0.03830000      -0.84740000      -1.13520000
O       -0.05120000      -2.11880000      -0.63540000
C        0.04930000      -1.96480000       0.69970000
N        0.12460000      -0.72260000       1.09300000
C        0.06230000      -3.12990000       1.50680000
N        0.07280000      -4.08110000       2.16530000
H        0.19570000       1.63420000       0.83070000
H       -0.10950000      -0.73130000      -2.20070000
