17
Properties=species:S:1:pos:R:3 gdb_71149=T pbc="F F F"
O       -0.07720000       1.38110000       0.05260000
C        0.01650000      -0.01360000       0.01810000
C        0.35530000      -0.69590000      -1.35410000
C       -0.86020000      -1.59530000      -1.13850000
C       -0.92900000      -2.15210000       0.29750000
C       -1.36680000      -0.74000000      -0.01310000
C        0.30640000      -2.12550000       1.14360000
O        0.77950000      -3.04810000       1.75790000
C        0.81720000      -0.67470000       1.14350000
H        0.81400000       1.74680000       0.03520000
H        0.17130000       0.00920000      -2.16830000
H        1.34240000      -1.15700000      -1.47330000
H       -1.42190000      -2.11090000      -1.90750000
H       -1.65150000      -2.94330000       0.45410000
H       -2.33690000      -0.31190000       0.19760000
H        1.90360000      -0.63370000       1.02060000
H        0.55870000      -0.21860000       2.10750000
