16
Properties=species:S:1:pos:R:3 gdb_79379=T pbc="F F F"
C        0.06030000       1.45450000      -0.40570000
N        0.04400000       0.02000000      -0.12520000
C       -1.04070000      -0.46360000       0.76840000
C       -0.15850000      -1.63290000       1.28430000
O       -0.40220000      -1.38560000       2.69260000
C       -0.33730000      -0.03570000       2.13590000
C       -0.50800000       1.08510000       3.00040000
C       -0.65070000       2.03780000       3.72120000
C        0.79400000      -0.42380000       1.07890000
H        1.02600000       1.72010000      -0.84730000
H       -0.71670000       1.68230000      -1.14230000
H       -0.10330000       2.08840000       0.47960000
H       -2.10150000      -0.44520000       0.51580000
H       -0.07570000      -2.65580000       0.92640000
H       -0.77680000       2.87850000       4.35830000
H        1.87710000      -0.35880000       1.18900000
