23
Properties=species:S:1:pos:R:3 gdb_96118=T pbc="F F F"
C       -0.01880000       1.56870000      -0.02760000
C        0.04350000       0.03650000       0.00980000
C        0.63180000      -0.54060000      -1.29080000
C        0.92910000      -2.02780000      -1.13210000
O        1.94940000      -2.24150000      -0.16790000
C        1.68830000      -1.68480000       1.08870000
C        2.26720000      -0.32420000       1.39300000
C        0.76530000      -0.49810000       1.25100000
C       -0.04900000      -0.44250000       2.53120000
H        0.98700000       1.99890000      -0.08180000
H       -0.57870000       1.91360000      -0.90370000
H       -0.50920000       1.97730000       0.86120000
H       -0.98860000      -0.33940000       0.07750000
H       -0.07250000      -0.37970000      -2.11540000
H        1.56220000      -0.02450000      -1.55990000
H        0.01000000      -2.57030000      -0.85320000
H        1.30780000      -2.46340000      -2.06120000
H        1.68870000      -2.43510000       1.87760000
H        2.67220000      -0.12680000       2.38030000
H        2.81280000       0.14210000       0.57970000
H       -0.28840000       0.58990000       2.81050000
H       -0.99440000      -0.98740000       2.42310000
H        0.49770000      -0.88660000       3.36910000
