16
Properties=species:S:1:pos:R:3 gdb_6012=T pbc="F F F"
C       -0.80710000       0.35640000       0.68770000
C        0.35640000       0.15180000      -0.24460000
O        1.44230000       0.66480000      -0.08020000
C        0.16940000      -0.74660000      -1.49420000
C       -1.04630000      -0.29540000      -2.32520000
O        1.34060000      -0.70720000      -2.26080000
C       -0.04220000      -2.19780000      -1.01580000
O       -1.04170000      -2.61150000      -0.48970000
H       -0.45170000       0.76410000       1.63490000
H       -1.50420000       1.07180000       0.23610000
H       -1.35610000      -0.57630000       0.83800000
H       -0.97870000       0.77170000      -2.55310000
H       -1.04870000      -0.84590000      -3.26920000
H       -1.97850000      -0.50300000      -1.79610000
H        1.96140000      -0.15660000      -1.75230000
H        0.84250000      -2.83680000      -1.22250000
