21
Properties=species:S:1:pos:R:3 gdb_40884=T pbc="F F F"
C        0.08150000       1.42030000      -0.53640000
C        1.36880000       1.71830000       0.28380000
C        1.34440000       0.25550000       0.78130000
C       -0.11360000       0.11460000       0.28580000
C        2.35310000      -0.84100000       0.36080000
C        3.71710000      -0.31050000       0.84600000
C        3.25970000       0.12700000       2.27600000
C        1.78440000      -0.30460000       2.14750000
O        1.90100000      -1.61990000       1.51310000
H       -0.71880000       2.16170000      -0.49060000
H        0.30240000       1.21740000      -1.58770000
H        2.25300000       2.04820000      -0.26870000
H        1.18940000       2.42980000       1.09670000
H       -0.83680000       0.24150000       1.09760000
H       -0.36750000      -0.79670000      -0.25990000
H        2.29440000      -1.37410000      -0.58950000
H        4.46610000      -1.10470000       0.86520000
H        4.09960000       0.51420000       0.23860000
H        3.76970000      -0.42050000       3.07110000
H        3.37390000       1.19890000       2.46040000
H        1.14340000      -0.28930000       3.03030000
