22
Properties=species:S:1:pos:R:3 gdb_103564=T pbc="F F F"
C        0.13110000       1.61490000       0.13380000
C       -0.06200000       0.10450000      -0.04760000
C        0.65120000      -0.48680000      -1.27190000
C        0.14930000       0.10450000      -2.59060000
N        2.12680000      -0.46340000      -1.15060000
C        2.30800000      -1.82240000      -1.17200000
O        3.28740000      -2.51910000      -1.10970000
C        0.78470000      -2.06290000      -1.30060000
C        0.13580000      -2.94380000      -0.24230000
H        1.19430000       1.87400000       0.19010000
H       -0.31330000       2.19190000      -0.68230000
H       -0.33530000       1.95140000       1.06440000
H        0.30550000      -0.40330000       0.84940000
H       -1.13280000      -0.12310000      -0.12250000
H        0.33640000       1.18120000      -2.64940000
H        0.65220000      -0.36810000      -3.43930000
H       -0.92950000      -0.05190000      -2.69880000
H        2.79490000       0.29330000      -1.18290000
H        0.54650000      -2.44660000      -2.29800000
H        0.39220000      -2.63240000       0.77360000
H       -0.95510000      -2.94800000      -0.33480000
H        0.48760000      -3.97250000      -0.36540000
