20
Properties=species:S:1:pos:R:3 gdb_6238=T pbc="F F F"
C       -0.07470000       1.53170000      -0.05840000
C       -0.00690000       0.00540000      -0.02150000
O       -1.29240000      -0.55020000      -0.17520000
C        1.14310000      -0.55840000      -0.91050000
C        2.04090000      -0.60940000       0.35410000
C        0.75080000      -0.56740000       1.23030000
C        0.76130000       0.21400000       2.53530000
O        0.25470000      -1.88210000       1.44280000
H        0.90590000       1.99620000       0.08040000
H       -0.44950000       1.85850000      -1.03680000
H       -0.75310000       1.91060000       0.71160000
H       -1.72590000      -0.09410000      -0.90410000
H        0.88710000      -1.55950000      -1.26020000
H        1.47790000       0.05490000      -1.75150000
H        2.66410000      -1.49680000       0.48790000
H        2.66320000       0.28230000       0.47160000
H        1.12580000       1.23650000       2.40450000
H       -0.24490000       0.24990000       2.96420000
H        1.42010000      -0.27770000       3.26230000
H        0.84870000      -2.30960000       2.06940000
