16
Properties=species:S:1:pos:R:3 gdb_20064=T pbc="F F F"
C        0.16340000       1.47060000      -0.04340000
O        1.04670000       0.39170000      -0.36370000
C       -0.29050000       0.07920000       0.02990000
C       -0.42660000      -0.64150000       1.35810000
O       -1.78000000      -0.55050000       1.80910000
C       -2.31430000      -1.85180000       2.05050000
C       -1.21930000      -2.80280000       1.65780000
C       -0.14800000      -2.11980000       1.27370000
H        0.39520000       2.00630000       0.87620000
H       -0.13680000       2.09330000      -0.88440000
H       -0.92660000      -0.30970000      -0.76630000
H        0.24430000      -0.14550000       2.07910000
H       -2.59460000      -1.95200000       3.11120000
H       -3.23210000      -1.99100000       1.45920000
H       -1.32480000      -3.87920000       1.70540000
H        0.80250000      -2.51330000       0.93860000
