14
Properties=species:S:1:pos:R:3 gdb_2136=T pbc="F F F"
C       -0.04890000       1.55000000       0.00600000
C        0.04890000       0.02380000       0.00220000
N        0.82490000      -0.48020000      -1.14920000
C        1.76540000      -1.18530000      -0.65720000
N        1.79010000      -1.28790000       0.72920000
C        0.74220000      -0.52870000       1.25230000
N        0.40080000      -0.30690000       2.45480000
H        0.94850000       1.99910000       0.02140000
H       -0.56890000       1.89700000      -0.89010000
H       -0.59150000       1.87910000       0.89550000
H       -0.96250000      -0.39750000      -0.05530000
H        2.52150000      -1.69940000      -1.24270000
H        2.49340000      -1.76040000       1.27190000
H        1.01300000      -0.77710000       3.12350000
