17
Properties=species:S:1:pos:R:3 gdb_108440=T pbc="F F F"
C        0.00200000       1.55520000      -0.06850000
C       -0.08670000       0.02200000      -0.08440000
C        0.73690000      -0.56360000      -1.19730000
O        0.29310000      -0.20230000      -2.53270000
C        0.38190000      -1.57620000      -2.99100000
C        0.95170000      -2.02750000      -1.64590000
O        2.39650000      -1.85380000      -1.57330000
C        2.28330000      -0.54370000      -1.13960000
O        3.16050000       0.20820000      -0.86850000
H        1.03460000       1.88260000       0.07900000
H       -0.35420000       1.96860000      -1.01580000
H       -0.61080000       1.96650000       0.73780000
H        0.26730000      -0.39130000       0.86800000
H       -1.12670000      -0.29980000      -0.21240000
H       -0.61180000      -1.97750000      -3.21960000
H        1.04800000      -1.69800000      -3.85030000
H        0.62200000      -2.93410000      -1.14490000
