21
Properties=species:S:1:pos:R:3 gdb_112889=T pbc="F F F"
C        0.00730000       1.51570000      -0.11830000
O        0.15230000       0.11990000       0.08850000
C        0.59520000      -0.59410000      -1.03460000
C        1.09660000      -1.98900000      -0.65590000
C        0.98820000      -2.80580000      -1.96190000
C        1.07630000      -4.31700000      -1.76280000
C       -0.33780000      -2.31600000      -2.57740000
C       -0.50590000      -0.87810000      -2.08610000
O       -1.36220000      -0.10180000      -2.42610000
H        0.95930000       1.96770000      -0.43960000
H       -0.76180000       1.73790000      -0.86400000
H       -0.27910000       1.94640000       0.84420000
H        1.39700000      -0.03870000      -1.55840000
H        2.10560000      -1.98010000      -0.23700000
H        0.42210000      -2.40060000       0.10590000
H        1.80790000      -2.49430000      -2.62420000
H        0.27170000      -4.67170000      -1.10830000
H        0.99230000      -4.85030000      -2.71530000
H        2.02910000      -4.60120000      -1.30360000
H       -0.39670000      -2.37780000      -3.66730000
H       -1.18510000      -2.89350000      -2.18100000
