15
Properties=species:S:1:pos:R:3 gdb_7301=T pbc="F F F"
N       -0.01370000       0.97100000      -0.07410000
H       -0.28590000       0.01860000      -0.30550000
H        1.43430000       0.74480000       1.17880000
H       -0.26570000       1.54480000      -0.87180000
C       -0.72080000       1.42650000       1.12790000
C       -2.21570000       1.05010000       1.21830000
C       -2.98240000       1.60370000       0.11070000
C       -3.57020000       2.07440000      -0.82670000
C        0.03510000       0.94200000       2.38260000
O        1.31790000       0.64080000       2.14760000
O       -0.47040000       0.87000000       3.47070000
H       -0.64500000       2.52080000       1.14440000
H       -2.31100000      -0.04390000       1.23430000
H       -2.60050000       1.40000000       2.18100000
H       -4.11960000       2.48610000      -1.63700000
