18
Properties=species:S:1:pos:R:3 gdb_40547=T pbc="F F F"
C       -0.08700000       1.18210000       0.35120000
C        1.15900000       0.45470000      -0.04040000
N       -0.12010000       0.07830000      -0.61260000
C       -0.70290000      -1.12940000      -0.25090000
N       -0.05240000      -2.19090000       0.04230000
C       -1.00950000      -3.29460000       0.22580000
C       -2.40690000      -2.69610000       0.09250000
N       -2.67240000      -1.65560000       1.10880000
C       -2.19570000      -1.26860000      -0.25160000
H       -0.48740000       0.98990000       1.34290000
H       -0.30010000       2.16580000      -0.05650000
H        1.85740000       0.91930000      -0.72990000
H        1.59350000      -0.23540000       0.67600000
H       -0.82960000      -4.06470000      -0.53510000
H       -0.85340000      -3.75830000       1.20610000
H       -3.23460000      -3.27510000      -0.30200000
H       -3.67800000      -1.49440000       1.14410000
H       -2.82820000      -0.67780000      -0.90340000
