15
Properties=species:S:1:pos:R:3 gdb_50745=T pbc="F F F"
O        0.12220000      -0.18040000      -0.19780000
C        0.07100000       1.01410000      -0.26120000
C        1.28720000       1.92630000      -0.03670000
O        2.43110000       1.14280000       0.16500000
C        3.62220000       1.84890000      -0.12400000
C        3.61100000       2.26090000      -1.58000000
O        2.47300000       3.09630000      -1.87540000
C        1.33320000       2.95490000      -1.17800000
O        0.37130000       3.63040000      -1.42550000
H       -0.85590000       1.58010000      -0.47700000
H        1.04740000       2.52720000       0.86100000
H        3.73330000       2.73000000       0.52790000
H        4.45210000       1.16520000       0.07230000
H        4.49080000       2.85220000      -1.84610000
H        3.56620000       1.37530000      -2.22290000
