13
Properties=species:S:1:pos:R:3 gdb_5480=T pbc="F F F"
O        0.11130000       1.38830000      -0.04530000
C        0.07560000       0.03560000       0.00920000
C        0.02390000      -0.77540000      -1.12650000
N        0.00000000      -2.08200000      -0.66950000
C        0.03380000      -2.10650000       0.67950000
C        0.08200000      -0.80050000       1.14760000
C       -0.00470000      -0.49110000      -2.53430000
O       -0.05050000      -1.35970000      -3.39250000
H        0.14430000       1.73720000       0.85080000
H       -0.03770000      -2.86030000      -1.30740000
H        0.02230000      -3.03590000       1.22700000
H        0.11720000      -0.49460000       2.18230000
H        0.01830000       0.58550000      -2.79510000
