14
Properties=species:S:1:pos:R:3 gdb_132582=T pbc="F F F"
C       -0.04670000       1.48590000       0.03890000
C       -0.00490000      -0.01440000      -0.01310000
N       -0.11040000      -0.61240000      -1.19890000
C       -0.07100000      -1.94960000      -1.22390000
C        0.07350000      -2.71030000      -0.07330000
O        0.11290000      -4.06320000      -0.10310000
C        0.17330000      -1.96280000       1.10290000
F        0.31440000      -2.64540000       2.24570000
N        0.13840000      -0.66410000       1.15970000
H        0.87260000       1.87880000       0.48480000
H       -0.16500000       1.89160000      -0.96580000
H       -0.87600000       1.82380000       0.66860000
H       -0.15670000      -2.44180000      -2.18920000
H        0.21760000      -4.38190000       0.80180000
