16
Properties=species:S:1:pos:R:3 gdb_17024=T pbc="F F F"
C       -0.00890000       1.64270000       0.02740000
C       -0.01370000       0.12700000       0.00790000
C        1.20070000      -0.62360000      -0.60960000
O        2.03290000      -0.19720000       0.53520000
C        0.75150000      -0.64450000       1.12080000
C        0.83310000      -1.90840000       0.20310000
C       -0.33330000      -2.70380000      -0.10930000
C       -1.29270000      -3.38220000      -0.36650000
H        0.98110000       2.02160000       0.28900000
H       -0.28950000       2.04350000      -0.95250000
H       -0.73310000       2.02290000       0.75580000
H       -0.98920000      -0.29280000      -0.25050000
H        1.63790000      -0.55780000      -1.60650000
H        0.64820000      -0.60380000       2.20570000
H        1.71340000      -2.51520000       0.42430000
H       -2.14090000      -3.97950000      -0.59370000
