15
Properties=species:S:1:pos:R:3 gdb_51245=T pbc="F F F"
N        0.13480000       1.34800000       0.00980000
C        0.03850000       0.08710000       0.00330000
O        1.12670000      -0.77580000      -0.00700000
C        0.66940000      -2.11780000      -0.01220000
C       -0.83540000      -2.00830000      -0.00390000
N       -1.60510000      -3.15910000      -0.00640000
C       -2.98370000      -3.20960000       0.00010000
O       -3.71060000      -2.24790000       0.00900000
C       -1.18420000      -0.71360000       0.00510000
H        1.11460000       1.63370000       0.00640000
H        1.04600000      -2.63550000      -0.90640000
H        1.05510000      -2.64550000       0.87220000
H       -1.12120000      -4.04480000      -0.01370000
H       -3.34540000      -4.25490000      -0.00390000
H       -2.17390000      -0.29310000       0.01240000
