16
Properties=species:S:1:pos:R:3 gdb_48091=T pbc="F F F"
O       -0.71100000       1.80200000      -1.46830000
C        0.12310000       1.18660000      -0.85910000
C        1.08900000       1.80480000       0.16720000
O        1.88520000       1.05100000       0.69350000
C        0.92320000       3.25540000       0.40390000
C        0.96590000       3.89670000       1.75890000
C        1.96690000       3.24980000       2.71170000
C        3.02870000       3.55230000       1.62580000
N        2.00590000       4.22880000       0.73720000
H        0.28470000       0.09370000      -0.97120000
H        0.21190000       3.70600000      -0.28030000
H        0.17860000       4.59440000       2.02930000
H        2.10400000       3.82770000       3.62730000
H        1.79760000       2.20180000       2.96380000
H        3.75900000       4.30680000       1.92350000
H        3.53500000       2.70350000       1.16920000
