16
Properties=species:S:1:pos:R:3 gdb_112494=T pbc="F F F"
C       -0.02080000       1.34250000      -0.47180000
C       -0.02900000      -0.14890000      -0.12370000
C       -1.41880000      -0.63930000       0.25900000
O       -2.38230000      -0.58150000      -0.83600000
C       -2.64310000      -1.99420000      -0.84310000
C       -2.29390000      -2.65430000      -2.09580000
N       -1.99460000      -3.18620000      -3.07730000
C       -1.62630000      -2.15360000       0.33700000
O       -1.21560000      -3.05710000       0.98560000
H        0.98200000       1.66440000      -0.76500000
H       -0.70140000       1.54760000      -1.30250000
H       -0.33480000       1.95060000       0.38320000
H        0.33580000      -0.73850000      -0.97230000
H        0.63750000      -0.35650000       0.72210000
H       -1.79950000      -0.10210000       1.13870000
H       -3.67710000      -2.23450000      -0.56470000
