21
Properties=species:S:1:pos:R:3 gdb_108177=T pbc="F F F"
C       -0.09680000       1.54790000      -0.02250000
C        0.00020000       0.01800000      -0.04450000
C        0.79630000      -0.53060000      -1.21080000
C        0.85190000      -2.05410000      -1.43440000
C        1.65970000      -1.89140000      -2.74650000
C        0.67920000      -0.93600000      -3.49520000
O        0.16280000      -0.09350000      -2.46330000
C        2.78980000      -0.99990000      -2.26070000
C        2.27680000      -0.17540000      -1.34120000
H        0.88740000       2.01410000       0.09130000
H       -0.53670000       1.91620000      -0.95220000
H       -0.71930000       1.88400000       0.81210000
H        0.45890000      -0.34620000       0.88300000
H       -1.00780000      -0.41090000      -0.08990000
H        1.40430000      -2.58900000      -0.66030000
H       -0.14250000      -2.49070000      -1.56980000
H        1.93250000      -2.78900000      -3.30030000
H        1.18140000      -0.33530000      -4.26280000
H       -0.14470000      -1.49140000      -3.96210000
H        3.78500000      -0.97660000      -2.68730000
H        2.76150000       0.66450000      -0.86060000
