17
Properties=species:S:1:pos:R:3 gdb_95113=T pbc="F F F"
O        0.06580000       1.39650000      -0.11020000
C        0.03310000      -0.00950000      -0.09250000
C        0.75100000      -0.64820000       1.12800000
C        0.01500000      -1.96930000       1.43330000
C       -1.40250000      -1.72710000       0.94520000
N       -1.95180000      -0.42130000       1.34870000
C       -1.38480000      -0.58870000      -0.01960000
C       -2.25740000      -0.53100000      -1.15600000
N       -2.96070000      -0.47610000      -2.07320000
H       -0.41030000       1.69700000       0.67410000
H        0.49480000      -0.32810000      -1.03270000
H        1.81670000      -0.78860000       0.93780000
H        0.65530000       0.03960000       1.97190000
H        0.44120000      -2.80510000       0.86740000
H        0.05020000      -2.23640000       2.49370000
H       -2.08870000      -2.55570000       0.80520000
H       -2.96780000      -0.44590000       1.29510000
