17
Properties=species:S:1:pos:R:3 gdb_29603=T pbc="F F F"
C       -0.11870000       1.50310000       0.23900000
C       -0.03270000       0.01790000       0.06840000
C        0.00640000      -0.68460000      -1.09400000
O        0.09740000      -2.02300000      -0.85900000
C        0.11630000      -2.17960000       0.48750000
C        0.04470000      -0.97570000       1.11720000
C       -0.00540000      -0.71760000       2.59590000
C       -1.42810000      -0.36960000       3.01230000
O       -1.77450000       0.69610000       3.45040000
H        0.78090000       1.90340000       0.72170000
H       -0.22670000       2.00360000      -0.72690000
H       -0.96820000       1.78930000       0.86770000
H       -0.01820000      -0.39170000      -2.13100000
H        0.19380000      -3.19400000       0.84470000
H        0.29770000      -1.61990000       3.14130000
H        0.65020000       0.10650000       2.89200000
H       -2.15860000      -1.19390000       2.84540000
