18
Properties=species:S:1:pos:R:3 gdb_42906=T pbc="F F F"
O        0.30770000      -0.00040000       0.14060000
C        0.13580000       1.17600000       0.10470000
C       -1.08600000       2.12550000       0.18830000
C       -2.03270000       2.07120000       1.35570000
C       -3.43430000       2.62230000       1.22510000
C       -3.21500000       1.13500000       1.31460000
C       -0.04110000       3.24020000       0.05340000
C        1.03100000       3.11510000       1.04880000
N        1.09900000       2.23810000      -0.16260000
H       -1.64440000       2.01660000      -0.74990000
H       -1.56390000       2.19680000       2.32720000
H       -3.86230000       3.13440000       2.07950000
H       -3.72880000       3.03780000       0.26690000
H       -3.35750000       0.54210000       0.41760000
H       -3.49170000       0.62410000       2.22950000
H       -0.12650000       4.09610000      -0.60490000
H        1.81810000       3.86170000       1.05790000
H        0.84120000       2.65110000       2.01330000
