21
Properties=species:S:1:pos:R:3 gdb_15190=T pbc="F F F"
C        0.25960000       1.17430000      -0.07310000
C        0.03880000      -0.18430000       0.59160000
O       -1.32320000      -0.54950000       0.71300000
C       -1.93790000      -0.95280000      -0.49180000
C       -3.32500000      -1.48360000      -0.14790000
N       -4.02710000      -1.87490000      -1.36300000
C       -3.86740000      -3.26500000      -1.78250000
C       -5.14830000      -2.78980000      -1.19160000
H        1.32310000       1.43440000      -0.04890000
H       -0.05850000       1.17480000      -1.11970000
H       -0.29840000       1.95280000       0.45600000
H        0.59250000      -0.96710000       0.04650000
H        0.42610000      -0.16250000       1.61580000
H       -2.03660000      -0.12210000      -1.20550000
H       -1.34200000      -1.73990000      -0.98510000
H       -3.22590000      -2.31300000       0.57450000
H       -3.89700000      -0.68920000       0.34440000
H       -3.77880000      -3.43170000      -2.85210000
H       -3.24840000      -3.91550000      -1.16570000
H       -5.38280000      -3.12530000      -0.18250000
H       -6.01310000      -2.60190000      -1.82170000
