19
Properties=species:S:1:pos:R:3 gdb_79792=T pbc="F F F"
O        0.24670000       1.41690000      -0.15610000
C        0.04510000       0.03440000      -0.00740000
C        0.14640000      -0.64030000       1.38680000
C       -0.89720000       0.06430000       2.27110000
C       -1.49610000      -1.04480000       3.17340000
C       -2.05540000      -1.59560000       1.85170000
C       -2.09770000      -0.15120000       1.25020000
C       -1.36060000      -0.58510000      -0.05400000
C       -0.85660000      -1.75120000       0.86640000
H       -0.37430000       1.87240000       0.42200000
H        0.71050000      -0.44990000      -0.72860000
H        1.10920000      -0.88110000       1.83780000
H       -0.63830000       1.04380000       2.67670000
H       -0.80530000      -1.66050000       3.75940000
H       -2.29030000      -0.66270000       3.82220000
H       -2.87680000      -2.30880000       1.79050000
H       -2.96540000       0.50490000       1.28770000
H       -1.93420000      -0.71840000      -0.97030000
H       -0.46960000      -2.70120000       0.50530000
