17
Properties=species:S:1:pos:R:3 gdb_33983=T pbc="F F F"
N        0.12060000      -1.15500000       0.04260000
C        0.06170000       0.00040000       0.01490000
C       -0.07800000       1.42480000       0.00580000
C        0.21270000       2.27610000      -1.17740000
N        1.10700000       2.39690000      -0.02150000
C        0.37270000       3.24510000       0.99330000
C       -0.77650000       2.23590000       1.08000000
C       -2.24930000       2.42860000       1.28610000
C       -1.41870000       1.69430000       2.31640000
H        0.68460000       1.80070000      -2.03110000
H       -0.47590000       3.08510000      -1.41280000
H        0.96700000       3.32200000       1.90600000
H        0.13800000       4.24780000       0.62140000
H       -2.59770000       3.42780000       1.52620000
H       -2.93290000       1.84940000       0.67400000
H       -1.53770000       0.61840000       2.39340000
H       -1.20470000       2.19120000       3.25710000
