17
Properties=species:S:1:pos:R:3 gdb_60987=T pbc="F F F"
C        0.16510000       1.31990000      -0.28020000
C        0.11730000      -0.16050000       0.09900000
C        0.86310000      -0.45890000       1.39350000
O        1.40720000       0.37250000       2.07250000
C       -1.31170000      -0.66450000       0.21370000
N       -1.98190000      -1.03930000      -1.02960000
C       -1.70490000      -2.09210000      -0.03300000
C       -0.73260000      -3.09370000      -0.40210000
N        0.05350000      -3.90050000      -0.66250000
H        1.19900000       1.66000000      -0.36980000
H       -0.34440000       1.48190000      -1.23340000
H       -0.31450000       1.93640000       0.48600000
H        0.60430000      -0.76580000      -0.67890000
H        0.87380000      -1.53400000       1.68090000
H       -1.90930000      -0.15910000       0.97230000
H       -2.97020000      -0.80200000      -1.00830000
H       -2.53140000      -2.48430000       0.55340000
