21
Properties=species:S:1:pos:R:3 gdb_57500=T pbc="F F F"
C       -0.09950000       1.55250000       0.08300000
C       -0.02330000       0.01710000       0.05240000
C        0.66810000      -0.50190000       1.32390000
C       -1.44110000      -0.57110000      -0.04440000
C        0.76740000      -0.44780000      -1.20640000
C        2.14300000       0.01900000      -1.28440000
C        3.28790000       0.40050000      -1.36110000
C        4.64650000       0.86990000      -1.42430000
O        5.42120000       0.61880000      -2.31960000
H        0.89850000       1.99850000       0.12840000
H       -0.60260000       1.94240000      -0.80900000
H       -0.66200000       1.89250000       0.95860000
H        0.11620000      -0.19010000       2.21650000
H        0.71970000      -1.59640000       1.32870000
H        1.68880000      -0.11650000       1.40600000
H       -1.95770000      -0.22170000      -0.94530000
H       -1.41800000      -1.66620000      -0.07270000
H       -2.04220000      -0.27320000       0.82070000
H        0.77170000      -1.54560000      -1.24660000
H        0.23770000      -0.11650000      -2.10990000
H        4.94750000       1.50200000      -0.56360000
