14
Properties=species:S:1:pos:R:3 gdb_69032=T pbc="F F F"
O        0.10510000       1.41020000      -0.18990000
C        0.04380000       0.05930000      -0.04690000
C       -0.23840000      -0.83390000      -1.22790000
C       -1.11450000      -0.98460000      -0.01460000
O       -0.36520000      -1.75780000       0.98020000
C        0.59580000      -0.75540000       1.07820000
N        1.51690000      -0.57560000       1.90630000
C       -2.51700000      -0.89010000       0.08850000
C       -3.71350000      -0.79260000       0.17390000
H        0.06510000       1.81150000       0.68710000
H       -0.70080000      -0.29740000      -2.05100000
H        0.43310000      -1.64140000      -1.50510000
H        1.55800000      -1.32810000       2.59550000
H       -4.77010000      -0.71340000       0.24850000
