20
Properties=species:S:1:pos:R:3 gdb_57883=T pbc="F F F"
C        0.76390000       0.83680000      -0.34730000
C       -0.04400000      -0.34930000       0.21490000
O        0.24440000      -0.53280000       1.57880000
C       -1.54880000      -0.10980000       0.04850000
O       -2.17910000       0.26820000       1.02240000
C       -2.24900000      -0.35960000      -1.25660000
C       -1.47940000      -0.41320000      -2.55840000
C       -3.47120000      -1.22630000      -1.08370000
N       -3.61090000       0.19790000      -1.34760000
H        1.81780000       0.67460000      -0.10880000
H        0.66350000       0.94080000      -1.43010000
H        0.44340000       1.76780000       0.12990000
H        0.23500000      -1.26470000      -0.32470000
H       -0.51120000      -0.15170000       2.05280000
H       -0.65350000      -1.12990000      -2.51860000
H       -2.15280000      -0.71620000      -3.36320000
H       -1.07470000       0.56800000      -2.82330000
H       -3.74300000      -1.88670000      -1.90310000
H       -3.69060000      -1.59620000      -0.08660000
H       -3.80410000       0.66890000      -0.46330000
