20
Properties=species:S:1:pos:R:3 gdb_8492=T pbc="F F F"
C       -0.12920000       1.52900000       0.06160000
C       -0.01070000       0.00040000       0.01480000
C       -1.42660000      -0.55200000      -0.19070000
C        1.18650000      -0.64950000      -0.78590000
C        2.16310000      -0.12280000       0.30680000
C        0.92110000      -0.70550000       1.05740000
O        0.64990000      -0.69930000       2.41430000
C        1.03860000      -1.92840000       0.09000000
H        0.81640000       2.05830000       0.17590000
H       -0.60270000       1.89660000      -0.85570000
H       -0.77240000       1.82510000       0.89760000
H       -1.85870000      -0.14200000      -1.11050000
H       -1.49010000      -1.63780000      -0.25600000
H       -2.07140000      -0.23640000       0.63690000
H        1.34520000      -0.61890000      -1.86220000
H        3.09170000      -0.69030000       0.41500000
H        2.35490000       0.94610000       0.36660000
H        1.34740000      -1.18240000       2.87040000
H        0.16870000      -2.56510000      -0.05510000
H        1.94600000      -2.52980000       0.19430000
