23
Properties=species:S:1:pos:R:3 gdb_95167=T pbc="F F F"
C        0.03780000       1.58210000      -0.00500000
C       -0.01110000       0.05230000      -0.05790000
C        0.72180000      -0.50800000      -1.28470000
C        0.50570000      -2.02110000      -1.41550000
C        0.81690000      -2.75160000      -0.12930000
O        2.05090000      -2.40830000       0.51130000
C        0.81660000      -2.06210000       1.17530000
C        0.55830000      -2.84240000       2.44430000
C        0.54330000      -0.56210000       1.24190000
H        1.07360000       1.93820000       0.04620000
H       -0.42290000       2.02490000      -0.89430000
H       -0.48930000       1.96920000       0.87390000
H       -1.06610000      -0.25020000      -0.14370000
H        0.37030000      -0.00680000      -2.19360000
H        1.79440000      -0.29840000      -1.19740000
H       -0.53930000      -2.23080000      -1.68300000
H        1.12250000      -2.43290000      -2.22380000
H        0.60670000      -3.82360000      -0.13730000
H        0.86210000      -3.88550000       2.32540000
H        1.12380000      -2.41480000       3.28010000
H       -0.50390000      -2.81360000       2.71110000
H        1.48870000      -0.07030000       1.50790000
H       -0.15140000      -0.35660000       2.06470000
