14
Properties=species:S:1:pos:R:3 gdb_3423=T pbc="F F F"
O        0.06320000       0.03300000       0.12300000
C        0.00110000       1.22780000      -0.01090000
C       -1.27830000       2.06790000      -0.17380000
C       -0.78390000       3.37960000      -0.81150000
N        0.68850000       3.48570000      -0.60510000
C        1.07700000       3.36500000       0.78910000
C        1.15940000       2.17310000      -0.11600000
H       -1.99550000       1.52710000      -0.79340000
H       -1.74520000       2.20400000       0.80780000
H       -0.95140000       3.36820000      -1.89230000
H       -1.26680000       4.27400000      -0.40890000
H        2.00010000       3.86910000       1.05870000
H        0.31060000       3.37650000       1.56150000
H        2.11670000       1.79600000      -0.45720000
