18
Properties=species:S:1:pos:R:3 gdb_87425=T pbc="F F F"
O       -0.19350000       1.39480000       0.00380000
C       -0.10990000      -0.00170000       0.02760000
C       -0.60170000      -0.76130000       1.25040000
C       -1.39580000      -0.74430000      -0.02790000
C       -2.73020000      -0.11790000      -0.35060000
C       -2.83000000      -0.87920000      -1.61850000
C       -1.77810000      -1.87990000      -0.98860000
C       -2.99670000      -2.48850000      -0.27130000
N       -3.75990000      -1.21480000      -0.50610000
H        0.49160000       1.74350000       0.58390000
H        0.74390000      -0.41930000      -0.50870000
H       -0.08020000      -1.66940000       1.53820000
H       -0.97470000      -0.16430000       2.07700000
H       -3.09800000       0.86660000      -0.09990000
H       -3.13090000      -0.61560000      -2.62350000
H       -1.01880000      -2.47370000      -1.49480000
H       -3.48540000      -3.28640000      -0.83610000
H       -2.88250000      -2.78300000       0.77840000
