17
Properties=species:S:1:pos:R:3 gdb_37189=T pbc="F F F"
C        0.09820000       1.51240000       0.20200000
O        1.51440000       1.43680000      -0.14640000
C        1.29820000       0.21580000      -0.90180000
C        1.51590000      -1.20660000      -0.34590000
N        0.77100000      -0.76480000       0.87260000
C       -0.03700000       0.03630000      -0.15900000
C       -0.79990000      -1.04180000      -0.92470000
N       -0.25590000      -1.25900000      -2.28880000
C        0.36480000      -1.95600000      -1.13520000
H       -0.05380000       1.77600000       1.25150000
H       -0.43520000       2.20630000      -0.46000000
H        1.38820000       0.38020000      -1.97100000
H        2.46290000      -1.73610000      -0.22330000
H        0.21150000      -1.52560000       1.26240000
H       -1.79410000      -1.38780000      -0.66570000
H       -0.85350000      -1.92020000      -2.78330000
H        0.28900000      -3.03540000      -1.05660000
