17
Properties=species:S:1:pos:R:3 gdb_29298=T pbc="F F F"
O       -0.61120000       1.24610000      -0.26190000
C       -0.19310000      -0.05330000      -0.19000000
C        1.06320000      -0.47760000      -0.54160000
N        1.09830000      -1.84680000      -0.31740000
C       -0.10590000      -2.27630000       0.15920000
C       -0.94400000      -1.18160000       0.25750000
N       -0.30960000      -3.64740000       0.38080000
C        0.08780000      -4.21610000       1.68220000
C       -1.34490000      -4.03950000       1.32560000
H       -1.53180000       1.28170000       0.01100000
H        1.91560000       0.06350000      -0.91290000
H        1.86170000      -2.45840000      -0.54510000
H       -1.97100000      -1.18790000       0.58880000
H        0.55180000      -5.19630000       1.63460000
H        0.50390000      -3.53340000       2.41870000
H       -1.88420000      -3.25010000       1.84300000
H       -1.94870000      -4.89060000       1.02570000
