21
Properties=species:S:1:pos:R:3 gdb_96149=T pbc="F F F"
C        0.03690000       1.54800000       0.10550000
C       -0.00740000       0.02880000      -0.00760000
C        0.56080000      -0.47710000      -1.34650000
C        0.19190000      -1.92070000      -1.64980000
C        1.25610000      -2.94300000      -2.00330000
C        0.57210000      -3.00420000      -0.67310000
O        1.33170000      -2.66190000       0.45190000
C        0.64570000      -1.83690000       1.36890000
O        0.74930000      -0.47170000       1.09800000
H        1.06280000       1.90970000      -0.01740000
H       -0.58830000       2.01080000      -0.66360000
H       -0.32140000       1.86650000       1.08770000
H       -1.05090000      -0.31610000       0.09450000
H        0.20000000       0.16470000      -2.15880000
H        1.64800000      -0.35380000      -1.30450000
H       -0.77480000      -2.04910000      -2.13010000
H        1.03450000      -3.70940000      -2.73760000
H        2.28510000      -2.60030000      -1.99630000
H       -0.13990000      -3.81010000      -0.49430000
H       -0.41390000      -2.14260000       1.42510000
H        1.13340000      -1.98540000       2.33540000
