19
Properties=species:S:1:pos:R:3 gdb_70003=T pbc="F F F"
O       -0.11480000       1.38940000       0.17280000
C       -0.01760000       0.01130000      -0.01690000
C       -0.41970000      -0.64570000      -1.30400000
C       -1.25140000      -0.85510000      -0.04100000
C       -0.93480000      -1.99750000       0.95330000
C        0.16850000      -2.89710000       0.38440000
O        1.31550000      -2.02180000       0.32530000
C        0.91490000      -0.78370000       0.93560000
C       -0.08840000      -1.23270000       2.00990000
H        0.59180000       1.80990000      -0.32980000
H       -0.87760000       0.01030000      -2.03790000
H        0.19340000      -1.43630000      -1.71740000
H       -2.23790000      -0.40720000      -0.01540000
H       -1.80940000      -2.53850000       1.31460000
H        0.38620000      -3.74700000       1.04400000
H       -0.05250000      -3.28120000      -0.61690000
H        1.80850000      -0.24320000       1.24860000
H       -0.62500000      -0.39570000       2.46150000
H        0.35070000      -1.86730000       2.78570000
