15
Properties=species:S:1:pos:R:3 gdb_127870=T pbc="F F F"
C        0.02570000       1.44780000       0.00720000
N        0.03190000      -0.00560000       0.00350000
C       -1.08000000      -0.64860000       0.00950000
C       -2.42770000      -0.04280000       0.02050000
N       -3.55980000      -0.64580000       0.02680000
O       -3.52400000      -2.04950000       0.02280000
C       -2.33380000      -2.69700000       0.01290000
O       -2.50830000      -4.02260000       0.01070000
C       -1.13360000      -2.09090000       0.00620000
H        1.05940000       1.80270000      -0.00140000
H       -0.47340000       1.87680000      -0.87480000
H       -0.45680000       1.87180000       0.90070000
H       -2.53870000       1.03690000       0.02420000
H       -3.45750000      -4.20500000       0.01660000
H       -0.22570000      -2.67680000      -0.00160000
