13
Properties=species:S:1:pos:R:3 gdb_131663=T pbc="F F F"
O        0.06940000       1.39150000       0.14700000
C        0.05440000       0.00450000      -0.10610000
C       -1.35220000      -0.53820000      -0.13700000
C       -1.89800000      -1.29400000      -1.10360000
C       -3.27250000      -1.75070000      -0.97870000
O       -3.88410000      -2.42970000      -1.75320000
O       -3.90730000      -1.32540000       0.18610000
N       -3.27090000      -0.51500000       1.16820000
N       -2.09830000      -0.16990000       0.99270000
H       -0.37240000       1.53480000       0.99270000
H        0.53510000      -0.15480000      -1.07470000
H        0.62900000      -0.55720000       0.64860000
H       -1.35580000      -1.58900000      -1.99420000
