18
Properties=species:S:1:pos:R:3 gdb_46782=T pbc="F F F"
N       -0.10250000       1.24970000      -0.61960000
C       -0.00170000       0.11750000      -0.06000000
C       -1.27090000      -0.69480000       0.17500000
O       -1.51290000      -1.20040000       1.47410000
C       -0.48460000      -1.95120000       2.08870000
C        0.70920000      -1.06430000       2.54660000
C        1.41190000      -1.41890000       1.21250000
C        0.49630000      -2.66740000       1.11660000
O        1.22310000      -0.43480000       0.19160000
H        0.82910000       1.63960000      -0.78380000
H       -2.10260000      -0.02810000      -0.04880000
H       -1.28220000      -1.50910000      -0.56600000
H       -0.97840000      -2.56030000       2.84840000
H        0.49410000      -0.00950000       2.73190000
H        1.23580000      -1.48910000       3.40520000
H        2.48960000      -1.58350000       1.22210000
H        0.96780000      -3.51960000       1.61300000
H        0.14800000      -2.98610000       0.13340000
