17
Properties=species:S:1:pos:R:3 gdb_9833=T pbc="F F F"
C       -0.31890000       1.39860000      -0.42650000
O       -0.36510000      -0.02560000      -0.58980000
C        0.80980000      -0.61010000      -0.87620000
O        1.85120000      -0.00330000      -0.98770000
C        0.68160000      -2.09740000      -1.03620000
C       -0.57750000      -2.77580000      -0.54840000
C        1.44430000      -2.63690000      -2.20930000
N        1.94640000      -2.83430000      -0.85340000
H        0.36510000       1.67000000       0.38110000
H        0.01660000       1.88030000      -1.34820000
H       -1.33760000       1.70160000      -0.18510000
H       -1.45670000      -2.40630000      -1.08260000
H       -0.49370000      -3.85370000      -0.70430000
H       -0.73250000      -2.59750000       0.51990000
H        1.06340000      -3.52810000      -2.70100000
H        1.95140000      -1.92360000      -2.85200000
H        2.68050000      -2.14820000      -0.68030000
