12
Properties=species:S:1:pos:R:3 gdb_133531=T pbc="F F F"
F       -0.00560000       0.03970000       0.00480000
C       -0.02250000       1.37940000      -0.01070000
F        1.24620000       1.80360000      -0.05370000
F       -0.63120000       1.77420000      -1.12910000
C       -0.74210000       1.90320000       1.23920000
C       -0.03140000       1.37710000       2.50760000
O       -0.57860000       0.69620000       3.32580000
C       -0.76260000       3.35710000       1.27850000
C       -0.75300000       4.55440000       1.36820000
H       -1.75380000       1.48600000       1.23290000
H        1.02180000       1.70770000       2.60330000
H       -0.75690000       5.61520000       1.42910000
