20
Properties=species:S:1:pos:R:3 gdb_86227=T pbc="F F F"
C       -0.00680000       1.56360000      -0.02360000
C        0.04670000       0.03670000      -0.04330000
C        0.88620000      -0.55600000      -1.18860000
C        1.20370000      -1.97280000      -0.71940000
O        2.24490000      -2.54040000      -1.47720000
C        1.57150000      -1.74780000       0.77990000
C        0.64860000      -0.58540000       1.25450000
C        1.48260000      -2.96750000       1.57170000
N        1.40320000      -3.95630000       2.16660000
H        0.99750000       1.98930000       0.08420000
H       -0.43910000       1.95750000      -0.94930000
H       -0.61590000       1.92890000       0.80990000
H       -0.97820000      -0.33960000      -0.15180000
H        0.37290000      -0.54180000      -2.15330000
H        1.83150000      -0.01010000      -1.30650000
H        0.29510000      -2.59190000      -0.77060000
H        2.33510000      -3.46670000      -1.22880000
H        2.61760000      -1.42170000       0.78600000
H        1.23430000       0.14970000       1.81320000
H       -0.13380000      -0.94520000       1.92590000
