19
Properties=species:S:1:pos:R:3 gdb_72992=T pbc="F F F"
C       -0.04270000       1.55080000       0.06190000
C        0.03810000       0.03990000       0.10700000
C       -1.16970000      -0.65190000      -0.42580000
O       -2.15950000      -0.07580000      -0.81190000
C        1.30820000      -0.78360000      -0.19220000
C        2.56020000      -0.04460000       0.29390000
C        1.97670000      -0.05230000       1.74460000
C        0.73540000      -0.77680000       1.20200000
O        0.11840000      -1.82650000       1.85990000
H        0.84440000       2.02980000       0.47900000
H       -0.16530000       1.89570000      -0.96910000
H       -0.91560000       1.90020000       0.62080000
H       -1.10430000      -1.76000000      -0.45220000
H        1.28530000      -1.56370000      -0.94400000
H        3.46140000      -0.65460000       0.20770000
H        2.75440000       0.93110000      -0.15810000
H        2.54300000      -0.71030000       2.40710000
H        1.82300000       0.90910000       2.24240000
H       -0.52020000      -1.46680000       2.48640000
