15
Properties=species:S:1:pos:R:3 gdb_28075=T pbc="F F F"
N       -0.08170000       1.37040000       0.14340000
C       -0.06080000       0.00200000       0.05030000
N       -1.07960000      -0.80480000       0.03430000
C       -0.48720000      -2.06480000       0.01290000
N       -1.31970000      -3.17170000      -0.00450000
C       -0.91690000      -4.47810000      -0.03150000
N        0.31420000      -4.81630000      -0.04900000
C        0.86220000      -1.95740000       0.00920000
O        1.14320000      -0.58900000       0.03490000
H        0.72110000       1.83120000      -0.25900000
H       -0.96300000       1.77380000      -0.13650000
H       -2.30370000      -2.96170000       0.01160000
H       -1.77000000      -5.16590000      -0.03630000
H        0.39910000      -5.82950000      -0.06810000
H        1.68540000      -2.64090000      -0.01140000
