20
Properties=species:S:1:pos:R:3 gdb_109742=T pbc="F F F"
C        0.12230000       1.50540000       0.02990000
C       -0.28100000       0.04960000      -0.23630000
C        0.59010000      -0.57560000      -1.30660000
C        1.94740000      -1.12350000      -1.00210000
O        2.45680000      -1.14950000       0.28280000
C        0.83240000      -2.09720000      -1.42010000
C        0.32320000      -3.03410000      -0.38750000
N       -0.26680000      -4.16730000      -0.85350000
O        0.44240000      -2.83750000       0.82360000
H        1.15190000       1.55370000       0.39600000
H        0.05800000       2.11260000      -0.88020000
H       -0.52960000       1.96150000       0.78140000
H       -0.21030000      -0.52840000       0.68730000
H       -1.33070000       0.00200000      -0.55260000
H        0.49460000      -0.10490000      -2.28340000
H        2.73420000      -0.96850000      -1.73560000
H        1.84830000      -1.69700000       0.81720000
H        0.87290000      -2.49750000      -2.42840000
H       -0.43840000      -4.32140000      -1.83080000
H       -0.62820000      -4.82550000      -0.18280000
