17
Properties=species:S:1:pos:R:3 gdb_68662=T pbc="F F F"
C        0.03590000       1.55990000       0.06180000
C        0.00260000       0.05620000      -0.03770000
C        0.69470000      -0.71920000      -1.21480000
C       -0.35830000      -1.85470000      -0.98120000
N        0.00320000      -2.64010000       0.20480000
C        0.46160000      -1.85440000       1.24200000
N        0.43260000      -0.57660000       1.24430000
C       -1.25990000      -0.69290000      -0.48330000
O       -2.42320000      -0.43440000      -0.58070000
H        1.04540000       1.90340000       0.30760000
H       -0.27930000       2.02350000      -0.87760000
H       -0.63540000       1.89500000       0.85760000
H        0.55090000      -0.22360000      -2.17710000
H        1.74310000      -0.98200000      -1.06000000
H       -0.69820000      -2.49320000      -1.79450000
H        0.44660000      -3.53760000       0.06350000
H        0.83150000      -2.39200000       2.11460000
