15
Properties=species:S:1:pos:R:3 gdb_44450=T pbc="F F F"
O       -0.02020000       0.00310000      -0.29040000
C        0.01010000       1.16150000       0.00880000
O       -1.12830000       1.83090000       0.35280000
C       -0.98160000       3.19970000       0.67780000
C        0.01930000       4.06000000      -0.07120000
C        1.00430000       3.25250000      -0.89690000
C        1.23670000       2.06130000       0.05860000
O        1.28110000       2.64310000       1.37200000
C        0.28350000       3.63290000       1.36190000
H       -1.93820000       3.61770000       0.96330000
H       -0.24110000       5.07320000      -0.34960000
H        0.61510000       2.92740000      -1.86570000
H        1.93110000       3.81080000      -1.05650000
H        2.14350000       1.48240000      -0.10340000
H        0.30840000       4.27530000       2.23220000
