18
Properties=species:S:1:pos:R:3 gdb_17531=T pbc="F F F"
C       -0.06880000       1.44000000      -0.01360000
C        0.02440000      -0.06410000      -0.08490000
C        0.76620000      -0.71280000      -1.19110000
N        1.35950000      -0.61840000       0.20950000
C        1.17610000      -2.11260000       0.34410000
C        0.66130000      -2.21560000      -1.09440000
C       -0.26430000      -3.13960000      -1.78430000
N        1.19250000      -3.18040000      -2.04710000
H        0.83160000       1.90120000      -0.42870000
H       -0.93660000       1.80370000      -0.57390000
H       -0.16810000       1.77200000       1.02470000
H       -0.83410000      -0.60040000       0.32180000
H        1.18050000      -0.15700000      -2.02910000
H        2.14160000      -2.60480000       0.47780000
H        0.49670000      -2.39970000       1.15390000
H       -0.65500000      -4.01280000      -1.26840000
H       -0.92510000      -2.72820000      -2.54390000
H        1.40140000      -2.72560000      -2.93340000
