20
Properties=species:S:1:pos:R:3 gdb_20015=T pbc="F F F"
C       -0.51350000       1.32150000       0.22930000
C        0.15260000      -0.02420000      -0.08070000
C        0.93300000      -0.56590000       1.10140000
C        0.25130000      -1.37930000       2.17760000
C        1.25690000      -2.03570000       1.26500000
C        0.82570000      -3.06480000       0.26590000
C        0.06750000      -4.26290000       0.65700000
O       -0.57030000      -3.17930000      -0.02310000
H        0.22920000       2.07810000       0.50690000
H       -1.06560000       1.69970000      -0.63680000
H       -1.21690000       1.22800000       1.06320000
H       -0.60620000      -0.75190000      -0.38350000
H        0.82810000       0.09410000      -0.93870000
H        1.71200000       0.10730000       1.45510000
H        0.51740000      -1.21730000       3.21620000
H       -0.78840000      -1.63950000       2.00700000
H        2.23390000      -2.25740000       1.68900000
H        1.45760000      -3.14660000      -0.62080000
H        0.16210000      -5.18170000       0.08030000
H       -0.22090000      -4.38910000       1.69930000
