21
Properties=species:S:1:pos:R:3 gdb_109730=T pbc="F F F"
C        1.47270000      -1.08370000       2.74620000
C        0.85050000      -1.19070000       1.37160000
C        0.16460000      -0.05180000       0.69250000
C        0.01350000       1.30760000       1.32940000
O       -1.13560000       1.23330000       2.17130000
C        1.48830000      -0.55890000       0.11680000
C        2.76250000       0.21120000       0.18710000
C        3.74590000      -0.06780000      -0.93850000
O        3.03400000       1.00340000       1.06980000
H        2.05750000      -0.17080000       2.86090000
H        0.68790000      -1.09260000       3.50940000
H        2.13830000      -1.93300000       2.93270000
H        0.41830000      -2.16680000       1.16560000
H       -0.69840000      -0.31950000       0.08790000
H        0.91270000       1.58130000       1.88780000
H       -0.12590000       2.06340000       0.53960000
H       -1.22730000       2.08100000       2.61600000
H        1.39480000      -1.15160000      -0.78770000
H        3.29830000       0.18930000      -1.90550000
H        4.65540000       0.51450000      -0.78810000
H        3.98980000      -1.13570000      -0.97640000
