16
Properties=species:S:1:pos:R:3 gdb_45747=T pbc="F F F"
N       -0.04660000       1.26000000       0.16870000
C       -0.00180000      -0.00410000       0.07980000
N        1.07600000      -0.88950000       0.10930000
C        0.59440000      -2.18240000      -0.03800000
N       -0.66710000      -2.29920000      -0.18040000
C       -1.21020000      -0.93550000      -0.08500000
C       -2.17580000      -0.77440000       1.07890000
C       -2.89670000      -1.91060000       1.65800000
O       -1.76710000      -1.33030000       2.32380000
H        0.87810000       1.67480000       0.29220000
H        2.03450000      -0.63430000       0.27840000
H        1.29160000      -3.01410000      -0.04430000
H       -1.74790000      -0.68470000      -1.00750000
H       -2.60000000       0.22730000       1.14470000
H       -3.85720000      -1.74390000       2.14310000
H       -2.72710000      -2.90250000       1.24820000
