19
Properties=species:S:1:pos:R:3 gdb_124631=T pbc="F F F"
C       -0.10140000       1.50060000      -0.03060000
C        0.02350000      -0.02990000       0.04260000
C        0.75470000      -0.47750000       1.30910000
N       -1.26520000      -0.72330000      -0.02540000
C       -2.00420000      -0.68990000      -1.20070000
C       -1.63440000      -0.39980000      -2.48310000
O       -2.68030000      -0.58650000      -3.32400000
N       -3.77610000      -0.99870000      -2.59830000
C       -3.37590000      -1.06030000      -1.35280000
H        0.88610000       1.97170000      -0.06950000
H       -0.66230000       1.81080000      -0.91640000
H       -0.62320000       1.88560000       0.85330000
H        0.60020000      -0.37750000      -0.82470000
H        0.19790000      -0.17600000       2.20510000
H        0.86950000      -1.56420000       1.32900000
H        1.74490000      -0.01700000       1.36780000
H       -1.83020000      -0.57820000       0.80120000
H       -0.71720000      -0.07230000      -2.94220000
H       -4.07220000      -1.37050000      -0.58570000
