17
Properties=species:S:1:pos:R:3 gdb_132489=T pbc="F F F"
C       -0.00010000       1.52190000      -0.00500000
C        0.00730000       0.01540000      -0.00690000
C       -0.04010000      -0.69870000      -1.20320000
C       -0.01510000      -2.08520000      -1.19880000
F       -0.06020000      -2.74540000      -2.36720000
C        0.05560000      -2.79620000      -0.01280000
C        0.09550000      -2.09260000       1.18650000
C        0.07350000      -0.69430000       1.20960000
N        0.18540000      -0.00020000       2.42440000
H        0.86450000       1.92400000       0.53660000
H        0.02170000       1.91830000      -1.02260000
H       -0.89810000       1.92800000       0.48210000
H       -0.09260000      -0.17620000      -2.15240000
H        0.07310000      -3.87940000      -0.03230000
H        0.14800000      -2.63800000       2.12430000
H       -0.04810000      -0.55890000       3.23330000
H       -0.30750000       0.88130000       2.45110000
