25
Properties=species:S:1:pos:R:3 gdb_58227=T pbc="F F F"
C       -0.41060000      -0.87420000      -2.66690000
C       -0.39490000      -0.32660000      -1.23090000
C       -0.11420000       1.18410000      -1.22610000
C       -1.67730000      -0.68010000      -0.41780000
C       -2.96420000      -0.18870000      -1.09860000
C       -1.73290000      -2.17160000      -0.05350000
C       -0.59350000      -2.70150000       0.79850000
C       -3.01170000      -2.90390000       0.01000000
O       -2.13240000      -3.07090000      -1.10480000
H        0.54900000      -0.67970000      -3.15770000
H       -0.59770000      -1.94990000      -2.68940000
H       -1.18760000      -0.38970000      -3.26810000
H        0.44930000      -0.79470000      -0.71080000
H       -0.87320000       1.74540000      -1.78150000
H       -0.08090000       1.58430000      -0.20670000
H        0.85100000       1.39460000      -1.69860000
H       -1.58350000      -0.15150000       0.54210000
H       -3.23590000      -0.83450000      -1.93790000
H       -3.80260000      -0.16990000      -0.39680000
H       -2.84360000       0.82820000      -1.48000000
H       -0.49260000      -2.11620000       1.71890000
H       -0.77470000      -3.74420000       1.07050000
H        0.36140000      -2.65970000       0.26730000
H       -3.09200000      -3.76660000       0.67110000
H       -3.95460000      -2.41170000      -0.21210000
