16
Properties=species:S:1:pos:R:3 gdb_65757=T pbc="F F F"
C        0.31550000       1.61760000       0.86580000
C        0.10730000       0.14420000       0.52010000
C        0.25810000      -0.23360000      -0.96990000
O        1.48790000      -0.98330000      -0.65840000
C        1.35710000      -0.74370000       0.67530000
O        2.01950000      -1.14810000       1.57700000
N       -1.03700000      -0.44100000       1.19670000
C       -2.31310000      -0.18760000       0.80170000
O       -2.60560000       0.48190000      -0.16780000
H        1.19320000       2.02010000       0.35170000
H       -0.56460000       2.18980000       0.56360000
H        0.46540000       1.73270000       1.94280000
H       -0.50660000      -0.89700000      -1.36950000
H        0.46830000       0.58840000      -1.65410000
H       -0.86870000      -0.96070000       2.04520000
H       -3.06070000      -0.67510000       1.45620000
