19
Properties=species:S:1:pos:R:3 gdb_106718=T pbc="F F F"
C        0.07370000       1.30780000      -0.29770000
O       -0.02350000      -0.02790000       0.16780000
C       -1.30330000      -0.53560000       0.13770000
C       -1.94670000      -1.04220000      -1.14430000
C       -1.68810000      -2.01450000      -0.02320000
O       -0.89820000      -3.11990000      -0.27180000
C       -2.70020000      -1.87500000       1.08520000
C       -2.05360000      -1.36320000       2.35110000
C       -2.32780000      -0.38800000       1.23830000
H        1.12850000       1.58750000      -0.24860000
H       -0.27630000       1.39610000      -1.33550000
H       -0.50760000       1.99940000       0.32840000
H       -2.95700000      -0.76160000      -1.43150000
H       -1.24550000      -1.15070000      -1.96670000
H       -0.43410000      -3.34610000       0.54240000
H       -3.70560000      -2.28130000       1.07900000
H       -2.70970000      -1.29270000       3.21340000
H       -1.02730000      -1.62560000       2.59440000
H       -3.03810000       0.42390000       1.34610000
