19
Properties=species:S:1:pos:R:3 gdb_11503=T pbc="F F F"
C       -0.08540000       1.60550000       0.16950000
C       -0.01820000       0.07090000       0.04710000
C        0.78810000      -0.61370000       1.18100000
C        2.25550000      -0.24080000       1.18920000
C        2.77420000       0.90620000       2.02430000
C        3.09030000      -0.51520000       2.41450000
C       -1.37190000      -0.49260000      -0.00760000
N       -2.43930000      -0.93560000      -0.03570000
H        0.92160000       2.02600000       0.14630000
H       -0.66320000       2.03610000      -0.65200000
H       -0.56170000       1.89820000       1.10990000
H        0.46400000      -0.17950000      -0.90750000
H        0.33190000      -0.36020000       2.14580000
H        0.68590000      -1.69920000       1.06630000
H        2.75800000      -0.39660000       0.23670000
H        3.57190000       1.52080000       1.62180000
H        2.06240000       1.44990000       2.63650000
H        2.58810000      -0.92430000       3.28520000
H        4.10300000      -0.87660000       2.27640000
