14
Properties=species:S:1:pos:R:3 gdb_15735=T pbc="F F F"
O       -0.06060000       0.10520000      -0.62970000
C       -0.00440000       1.23670000      -0.21080000
C        1.29080000       1.85680000       0.33450000
C        2.46490000       1.01040000       0.16890000
N        3.40910000       0.35840000       0.04390000
C       -1.19810000       2.13290000      -0.17880000
C       -2.00770000       2.19410000      -1.44360000
N       -2.51960000       1.49910000      -0.27510000
H        1.45650000       2.82570000      -0.15280000
H        1.14200000       2.07890000       1.39940000
H       -1.14150000       3.01270000       0.45580000
H       -2.50560000       3.12660000      -1.69240000
H       -1.64550000       1.60930000      -2.28440000
H       -2.36300000       0.49720000      -0.39260000
