15
Properties=species:S:1:pos:R:3 gdb_34753=T pbc="F F F"
N       -0.23890000      -1.18890000      -0.33070000
C       -0.13000000      -0.04960000      -0.16840000
C        0.00440000       1.38810000       0.03410000
C       -0.24920000       1.99420000       1.45460000
O        0.06740000       1.08410000       2.47750000
C        1.45070000       0.72920000       2.30150000
C        2.00960000       1.77780000       1.35330000
C        1.01280000       2.84330000       1.17980000
N        1.39590000       1.97350000       0.00070000
H       -0.57800000       1.91070000      -0.73010000
H       -1.21690000       2.44940000       1.65570000
H        1.95320000       0.77400000       3.27380000
H        1.53250000      -0.29020000       1.90980000
H        3.07170000       1.99110000       1.35330000
H        1.15540000       3.91530000       1.20560000
