18
Properties=species:S:1:pos:R:3 gdb_56238=T pbc="F F F"
N        0.04340000       1.29010000       0.00210000
C       -0.35160000       0.00030000      -0.38830000
N        0.59240000      -0.61640000      -1.21680000
H        1.03900000       0.05480000      -1.83170000
H        0.19860000      -1.36800000      -1.76870000
C       -1.50360000      -0.58410000       0.02030000
N       -1.90220000      -1.90670000      -0.29730000
C       -3.10790000      -2.12080000      -1.08780000
C       -3.06120000      -1.66330000      -2.55490000
O       -2.44080000      -0.48220000      -2.76950000
O       -3.53650000      -2.29150000      -3.46100000
H        1.00210000       1.31050000       0.33400000
H       -0.56460000       1.68480000       0.70760000
H       -2.11630000      -0.07750000       0.76230000
H       -2.12860000      -0.11640000      -1.91730000
H       -1.14770000      -2.53170000      -0.54080000
H       -3.36280000      -3.18260000      -1.09310000
H       -3.93790000      -1.59060000      -0.60120000
