16
Properties=species:S:1:pos:R:3 gdb_2696=T pbc="F F F"
C       -0.03610000       1.49550000      -0.02840000
C        0.02080000      -0.03300000       0.03370000
C        0.75700000      -0.53240000       1.26730000
O        0.76230000      -1.95230000       1.24460000
C        1.42430000      -2.50350000       2.35160000
C        1.38980000      -3.96670000       2.25950000
N        1.37970000      -5.12020000       2.21570000
H        0.96780000       1.93290000      -0.05840000
H       -0.56930000       1.82890000      -0.92270000
H       -0.55460000       1.91280000       0.84180000
H       -0.99110000      -0.45290000       0.03970000
H        0.52140000      -0.43290000      -0.85500000
H        1.79270000      -0.15190000       1.28280000
H        0.26470000      -0.17200000       2.18670000
H        2.47810000      -2.18120000       2.39990000
H        0.95230000      -2.20210000       3.30190000
