18
Properties=species:S:1:pos:R:3 gdb_88747=T pbc="F F F"
O       -0.24850000       1.46410000       0.45060000
C       -0.07120000       0.11060000       0.14540000
C       -0.64210000      -0.93280000       1.06890000
C       -1.30160000      -0.65110000      -0.27010000
C       -2.61950000       0.05410000      -0.31780000
N       -3.34780000       0.02390000      -1.57810000
C       -3.94820000      -0.65400000      -0.40780000
C       -4.03720000      -2.13580000      -0.49750000
O       -4.81070000      -2.80140000       0.14510000
H        0.30850000       1.67410000       1.20720000
H        0.85620000      -0.12010000      -0.37770000
H       -0.11480000      -1.87030000       1.20570000
H       -1.15760000      -0.56640000       1.95120000
H       -1.16200000      -1.38830000      -1.05290000
H       -2.64350000       0.97470000       0.25970000
H       -3.82480000       0.90330000      -1.75500000
H       -4.78410000      -0.19030000       0.11050000
H       -3.32550000      -2.59270000      -1.21930000
