17
Properties=species:S:1:pos:R:3 gdb_74630=T pbc="F F F"
C       -0.03280000       1.50550000       0.05190000
C       -0.00210000       0.01180000      -0.02770000
C       -0.01920000      -0.73760000      -1.13980000
C        0.01870000      -2.19460000      -0.94830000
C       -0.67530000      -2.72410000       0.32860000
O       -1.06100000      -1.72970000       1.23500000
C        0.05420000      -0.82670000       1.22510000
O        1.20680000      -1.67960000       1.16640000
C        0.81120000      -2.69130000       0.28360000
H        0.85450000       1.89880000       0.56470000
H       -0.07160000       1.95310000      -0.94500000
H       -0.90530000       1.85990000       0.61580000
H       -0.05870000      -0.31430000      -2.13880000
H        0.00710000      -2.84930000      -1.81160000
H       -1.31890000      -3.59190000       0.32950000
H        0.07030000      -0.27010000       2.16260000
H        1.49120000      -3.53000000       0.24460000
