17
Properties=species:S:1:pos:R:3 gdb_37398=T pbc="F F F"
C       -0.04840000       1.57400000       0.05950000
C        1.50470000       1.46740000       0.01970000
C        2.01810000       1.27210000       1.44340000
O        1.02940000       1.33010000       2.49440000
C        1.50280000       0.05490000       2.07680000
C        0.72560000      -0.77470000       1.06570000
O        1.76200000      -1.09860000       0.07180000
C        1.30570000       0.02860000      -0.67780000
C       -0.08230000       0.03910000      -0.01790000
H       -0.49450000       2.09000000       0.90650000
H       -0.43770000       1.98300000      -0.87790000
H        2.06520000       2.22100000      -0.53330000
H        2.98760000       1.67700000       1.71810000
H        2.08010000      -0.49840000       2.81500000
H        0.25960000      -1.67600000       1.46740000
H        1.52280000      -0.03080000      -1.74500000
H       -0.94480000      -0.49540000      -0.41650000
