19
Properties=species:S:1:pos:R:3 gdb_126396=T pbc="F F F"
C        0.08920000       1.53580000       0.08610000
C       -0.04360000       0.01610000      -0.12130000
C        0.74660000      -0.49510000      -1.28740000
N        0.15970000      -0.84290000      -2.43680000
N        1.15440000      -1.24010000      -3.24640000
C        0.86630000      -1.60600000      -4.61440000
C        2.37770000      -1.15100000      -2.65310000
C        2.14740000      -0.67330000      -1.38060000
O        3.10700000      -0.44240000      -0.43820000
H        1.13300000       1.82900000       0.24350000
H       -0.27320000       2.07590000      -0.79320000
H       -0.48830000       1.86640000       0.95530000
H        0.26510000      -0.50470000       0.79700000
H       -1.09330000      -0.24650000      -0.28210000
H        1.02110000      -0.76410000      -5.29920000
H        1.50820000      -2.43560000      -4.92210000
H       -0.17750000      -1.91680000      -4.66460000
H        3.28810000      -1.43100000      -3.15660000
H        2.67260000      -0.21820000       0.39010000
