19
Properties=species:S:1:pos:R:3 gdb_47639=T pbc="F F F"
O       -0.26910000       0.02380000       0.50490000
C       -0.01740000       1.16480000       0.15950000
C       -1.13810000       2.17620000      -0.04320000
C       -1.61330000       2.25830000      -1.50660000
C       -0.45970000       2.56440000      -2.48630000
C        0.32780000       3.78120000      -2.09940000
C        1.35500000       3.80670000      -1.23450000
C        1.95450000       2.67260000      -0.53930000
C        1.40490000       1.56020000      -0.01000000
H       -1.96850000       1.85310000       0.58990000
H       -0.81090000       3.16680000       0.28690000
H       -2.08070000       1.31080000      -1.79620000
H       -2.38640000       3.03190000      -1.57940000
H        0.20860000       1.69470000      -2.51390000
H       -0.86880000       2.69010000      -3.49410000
H        0.03950000       4.72080000      -2.56620000
H        1.87490000       4.75210000      -1.09100000
H        3.03830000       2.74840000      -0.44410000
H        2.07470000       0.80330000       0.39090000
