19
Properties=species:S:1:pos:R:3 gdb_17610=T pbc="F F F"
C        0.05760000       1.56220000      -0.26840000
C       -0.08330000       0.05510000       0.04110000
C       -1.55080000      -0.37080000       0.12070000
C        0.67180000      -0.72980000      -1.02550000
O        0.11920000      -1.23170000      -1.98480000
C        2.15700000      -0.84720000      -0.86310000
C        2.72700000      -2.22520000      -1.02850000
N        2.94320000      -1.21160000      -2.05010000
H        1.10440000       1.87610000      -0.32290000
H       -0.41790000       1.80140000      -1.22500000
H       -0.43090000       2.15300000       0.51210000
H        0.41320000      -0.13680000       1.00220000
H       -2.04160000      -0.23330000      -0.84600000
H       -1.64430000      -1.42670000       0.39030000
H       -2.08140000       0.22320000       0.87090000
H        2.63810000      -0.16200000      -0.17160000
H        3.60210000      -2.50120000      -0.44710000
H        2.02000000      -3.02520000      -1.22970000
H        2.26970000      -1.36760000      -2.80210000
