20
Properties=species:S:1:pos:R:3 gdb_116585=T pbc="F F F"
C       -0.41730000       1.47330000      -0.24530000
C        0.54790000       0.34750000       0.11520000
N        1.17780000      -0.19510000      -1.08210000
C        2.02300000      -1.12810000      -0.94410000
N        2.47440000      -1.75880000       0.21950000
C        3.37220000      -2.75580000      -0.14330000
N        3.61630000      -2.86530000      -1.38930000
C        2.79370000      -1.83750000      -2.06010000
C        1.87730000      -2.44200000      -3.12510000
H        0.11350000       2.27950000      -0.75970000
H       -1.19810000       1.10550000      -0.91730000
H       -0.89370000       1.88540000       0.65010000
H        1.31060000       0.72950000       0.81540000
H        0.00030000      -0.44340000       0.65660000
H        2.12850000      -1.59090000       1.14800000
H        3.82000000      -3.37560000       0.62760000
H        3.46980000      -1.11850000      -2.53990000
H        1.22250000      -3.19920000      -2.68370000
H        1.25500000      -1.65610000      -3.56010000
H        2.47140000      -2.91580000      -3.91020000
