19
Properties=species:S:1:pos:R:3 gdb_99856=T pbc="F F F"
C        0.04890000       1.53890000      -0.05920000
C       -0.00240000       0.02000000       0.07890000
O        0.68030000      -0.44300000       1.22960000
C       -1.45790000      -0.54940000       0.04110000
O       -2.16210000      -0.08250000      -1.10940000
C       -1.44760000      -2.08930000       0.07040000
N       -2.80820000      -2.59470000       0.12600000
C       -2.17870000      -0.02610000       1.21840000
N       -2.62840000       0.41760000       2.18560000
H        1.09080000       1.86720000      -0.08190000
H       -0.45150000       1.86890000      -0.97230000
H       -0.45040000       2.02100000       0.78820000
H        0.52390000      -0.44330000      -0.76680000
H        0.31610000       0.01910000       1.99530000
H       -1.66820000      -0.38260000      -1.88220000
H       -0.86290000      -2.40930000      -0.81450000
H       -0.89340000      -2.41920000       0.95230000
H       -3.32220000      -2.30330000      -0.69850000
H       -2.81670000      -3.60740000       0.15730000
