17
Properties=species:S:1:pos:R:3 gdb_99509=T pbc="F F F"
C       -0.53880000       0.98580000       0.15440000
O       -0.13430000      -0.35700000      -0.06600000
C        0.78500000      -0.50960000      -1.14130000
C        1.54670000      -1.73750000      -0.95300000
C        2.21160000      -2.72540000      -0.80300000
C       -0.01060000      -0.45690000      -2.46160000
O       -0.24710000       0.57590000      -3.03860000
O       -0.46800000      -1.65650000      -2.82970000
C       -1.30930000      -1.66470000      -3.99230000
H        0.32340000       1.62510000       0.39540000
H       -1.05690000       1.41130000      -0.71330000
H       -1.21800000       0.96360000       1.00900000
H        1.47180000       0.34910000      -1.17560000
H        2.78900000      -3.60720000      -0.67170000
H       -2.20540000      -1.06350000      -3.81960000
H       -0.77380000      -1.26120000      -4.85500000
H       -1.57360000      -2.70870000      -4.15700000
