16
Properties=species:S:1:pos:R:3 gdb_64571=T pbc="F F F"
C        0.16290000       1.72460000       0.14320000
C        0.02660000       0.20670000       0.03310000
C       -1.36000000      -0.26090000       0.42180000
O       -2.01130000      -1.05720000      -0.20620000
C        0.56390000      -0.52200000      -1.21290000
N        1.98320000      -0.18380000      -1.30990000
C        1.55920000      -1.32040000      -0.41560000
C        1.06900000      -0.66820000       0.85000000
O        1.23970000      -0.83620000       2.01920000
H        1.16440000       2.03060000      -0.16370000
H       -0.56920000       2.23690000      -0.49000000
H        0.00290000       2.04520000       1.17740000
H       -1.74410000       0.19180000       1.36120000
H       -0.02580000      -0.86170000      -2.05220000
H        2.35570000      -0.62300000      -2.15220000
H        1.95540000      -2.31710000      -0.55960000
