19
Properties=species:S:1:pos:R:3 gdb_73277=T pbc="F F F"
C       -0.06840000       1.53480000      -0.05100000
C       -0.00670000       0.01970000       0.00020000
C       -1.22810000      -0.77040000       0.51220000
O       -0.40720000      -1.53530000       1.41970000
C        0.72300000      -0.67250000       1.19260000
C        2.01490000      -1.40590000       0.87950000
O        2.04170000      -1.90930000      -0.44610000
C        1.72290000      -0.89780000      -1.35690000
O        0.37790000      -0.50300000      -1.27210000
H        0.91820000       1.95800000      -0.26730000
H       -0.75130000       1.85360000      -0.84440000
H       -0.41730000       1.95010000       0.89930000
H       -1.97340000      -0.16560000       1.04550000
H       -1.71510000      -1.39640000      -0.24070000
H        0.87890000       0.00410000       2.04580000
H        2.86410000      -0.71920000       1.03760000
H        2.12740000      -2.26000000       1.55310000
H        2.39480000      -0.03070000      -1.20530000
H        1.86030000      -1.30410000      -2.36060000
