18
Properties=species:S:1:pos:R:3 gdb_14948=T pbc="F F F"
O       -0.90100000       1.14350000       0.08240000
C        0.23810000       0.75930000       0.03210000
C        1.44540000       1.68290000       0.04170000
C        1.30690000       2.84190000       1.03580000
C        2.59850000       3.67010000       1.04810000
C        3.81150000       2.75330000       1.26710000
C        3.79290000       1.60090000       0.26120000
O        2.57320000       0.87280000       0.31520000
H        0.50390000      -0.31860000      -0.03610000
H        1.52910000       2.10260000      -0.98140000
H        0.43420000       3.44220000       0.76460000
H        1.11860000       2.42470000       2.03250000
H        2.70550000       4.19160000       0.08690000
H        2.55140000       4.44330000       1.82160000
H        4.74990000       3.31050000       1.16830000
H        3.78420000       2.33700000       2.28150000
H        3.94480000       1.99180000      -0.76020000
H        4.58610000       0.87620000       0.46500000
