13
Properties=species:S:1:pos:R:3 gdb_129858=T pbc="F F F"
N        0.09800000       1.36530000       0.13150000
C       -0.01590000      -0.01350000       0.01900000
C       -1.15510000      -0.81280000       0.00750000
C       -0.65840000      -2.14050000       0.00350000
C        0.72040000      -2.09900000       0.00510000
N        1.13710000      -0.77930000      -0.01990000
N        1.20760000      -3.34940000      -0.05270000
N        0.25920000      -4.18420000      -0.06810000
O       -1.04080000      -3.40260000      -0.04420000
H        0.74550000       1.78340000      -0.52580000
H       -0.79590000       1.83440000       0.08790000
H       -2.17330000      -0.46260000      -0.02310000
H        2.03980000      -0.43690000       0.26260000
