19
Properties=species:S:1:pos:R:3 gdb_120180=T pbc="F F F"
C        0.05550000       1.34070000      -0.03870000
O       -0.04130000      -0.05610000       0.10800000
C       -1.34510000      -0.54530000      -0.12910000
C       -1.28340000      -2.05850000      -0.03200000
C       -1.08450000      -2.75570000       1.36800000
C       -2.59600000      -2.45520000       1.65750000
C       -2.60070000      -2.89970000       0.15220000
C       -1.63600000      -3.99510000       0.64590000
O       -1.43840000      -5.16400000       0.53400000
H        1.09270000       1.61920000       0.16230000
H       -0.20890000       1.66420000      -1.05800000
H       -0.59930000       1.87330000       0.66950000
H       -2.05650000      -0.09310000       0.57740000
H       -1.68210000      -0.26460000      -1.14230000
H       -0.60980000      -2.42680000      -0.81090000
H       -0.23780000      -2.65870000       2.04230000
H       -3.10420000      -3.10910000       2.36840000
H       -2.84180000      -1.41150000       1.84390000
H       -3.44880000      -2.97400000      -0.52520000
