18
Properties=species:S:1:pos:R:3 gdb_83491=T pbc="F F F"
C       -0.11300000       1.52990000      -0.01660000
C        0.04840000       0.01610000       0.03540000
C        1.09530000      -0.59070000      -0.91070000
O        2.32560000      -0.07060000      -0.47020000
C        2.23800000      -0.06190000       0.97440000
C        0.81160000      -0.60370000       1.24170000
C        0.85310000      -2.04530000       0.78390000
N        0.76520000      -3.08800000       1.48410000
O        1.03400000      -1.99790000      -0.58540000
H        0.84860000       2.04770000      -0.00140000
H       -0.63200000       1.82500000      -0.93440000
H       -0.71080000       1.88590000       0.82810000
H       -0.91790000      -0.47710000      -0.10120000
H        1.01010000      -0.47580000      -1.98890000
H        3.01830000      -0.70320000       1.39330000
H        2.37570000       0.95910000       1.34460000
H        0.42770000      -0.45680000       2.24770000
H        0.84520000      -3.92170000       0.89840000
