16
Properties=species:S:1:pos:R:3 gdb_77781=T pbc="F F F"
C        0.08010000       1.57290000       0.04460000
C        0.09210000       0.06240000       0.08850000
C        1.30990000      -0.80590000      -0.22070000
C        2.53570000      -0.14710000       0.39990000
O        3.58180000       0.27910000       0.00310000
N        1.96860000      -0.18310000       1.68470000
C        0.70900000      -0.76530000       1.19690000
C        0.02760000      -1.77950000       1.92660000
C       -0.57540000      -2.61240000       2.55050000
H        0.99430000       2.00540000       0.45870000
H       -0.01100000       1.92150000      -0.98890000
H       -0.77080000       1.96700000       0.60970000
H       -0.81850000      -0.39740000      -0.29220000
H        1.29040000      -1.61460000      -0.93730000
H        2.02670000       0.57470000       2.35550000
H       -1.09490000      -3.35830000       3.09970000
