20
Properties=species:S:1:pos:R:3 gdb_71357=T pbc="F F F"
C        0.08130000       1.58590000      -0.19960000
C        0.03220000       0.08220000      -0.02440000
C        0.52810000      -0.94070000      -1.05460000
N        0.04050000      -1.86930000       0.04620000
C        0.66610000      -0.85930000       1.05450000
C       -0.18340000      -0.96190000       2.30650000
C       -1.17580000       0.13600000       2.59600000
C       -1.56250000      -0.99070000       1.67130000
C       -1.16670000      -0.89750000       0.21040000
H        1.11690000       1.91160000      -0.35080000
H       -0.48800000       1.87780000      -1.08960000
H       -0.32030000       2.14640000       0.64720000
H       -0.02960000      -1.03540000      -1.99210000
H        1.60570000      -1.00120000      -1.23880000
H        1.75240000      -0.92630000       1.14670000
H        0.10930000      -1.65000000       3.09000000
H       -1.62940000       0.11200000       3.58210000
H       -1.02170000       1.13650000       2.21620000
H       -2.32420000      -1.70080000       1.96920000
H       -1.93980000      -1.00340000      -0.55390000
