17
Properties=species:S:1:pos:R:3 gdb_24351=T pbc="F F F"
C       -0.01880000       1.46310000       0.03700000
C        1.43180000       1.98350000      -0.00810000
N        2.24690000       1.50800000       1.11430000
C        1.99070000       0.16100000       1.43720000
C        2.68470000      -0.71370000       2.21780000
O        2.08760000      -1.93780000       2.19280000
C        0.99450000      -1.84680000       1.38510000
C        0.88120000      -0.58160000       0.89250000
N       -0.10220000      -0.00060000       0.06820000
H       -0.51030000       1.85900000       0.93620000
H       -0.58290000       1.82540000      -0.82740000
H        1.89990000       1.64970000      -0.94420000
H        1.44660000       3.07740000      -0.00990000
H        2.18500000       2.12240000       1.91570000
H        3.56690000      -0.62550000       2.82870000
H        0.41880000      -2.74770000       1.25780000
H       -0.12130000      -0.39970000      -0.86130000
