17
Properties=species:S:1:pos:R:3 gdb_32565=T pbc="F F F"
C        0.03670000       1.56950000       0.01230000
C       -0.02940000       0.04360000       0.10190000
N        0.67800000      -0.48680000       1.25690000
C        2.04750000      -0.68390000       1.29890000
N        2.85030000      -0.44890000       0.34260000
O        2.34350000      -1.17090000       2.54580000
C        1.15060000      -1.25890000       3.27580000
C        0.14930000      -0.83960000       2.48930000
O       -1.18200000      -0.71000000       2.65580000
H        1.07750000       1.89610000      -0.04920000
H       -0.48850000       1.91530000      -0.88350000
H       -0.43070000       2.03490000       0.88530000
H       -1.06410000      -0.30200000       0.16480000
H        0.43240000      -0.40590000      -0.78160000
H        3.80210000      -0.68760000       0.60720000
H        1.21050000      -1.62270000       4.28400000
H       -1.42030000      -1.01560000       3.53710000
