17
Properties=species:S:1:pos:R:3 gdb_126068=T pbc="F F F"
C       -0.04230000       1.50300000      -0.27780000
C       -0.03440000       0.02600000       0.01010000
O        1.22030000      -0.65910000      -0.04720000
C        0.56030000      -0.58500000       1.22230000
C        1.25170000       0.17140000       2.28570000
C        0.92430000       0.23560000       3.62780000
N        1.85080000       1.03460000       4.20960000
N        2.77480000       1.49450000       3.34650000
C        2.41480000       0.97280000       2.17810000
H        0.71810000       2.03100000       0.30100000
H        0.14330000       1.68290000      -1.34190000
H       -1.02210000       1.92740000      -0.03280000
H       -0.84910000      -0.53410000      -0.45550000
H        0.12300000      -1.53140000       1.54690000
H        0.12470000      -0.21560000       4.19410000
H        1.91650000       1.29490000       5.17890000
H        3.00140000       1.16050000       1.29220000
