17
Properties=species:S:1:pos:R:3 gdb_93449=T pbc="F F F"
C       -0.06980000       1.54320000      -0.03950000
C        0.04020000       0.02030000      -0.01650000
N        0.76560000      -0.48010000      -1.17670000
C        0.84250000      -1.93310000      -1.15590000
C        1.64560000      -2.35970000       0.04260000
N        2.39830000      -3.36760000       0.03990000
O        1.49470000      -1.59280000       1.18880000
C        0.73240000      -0.44790000       1.26120000
O        0.63390000       0.09850000       2.31940000
H        0.92300000       1.99370000      -0.11660000
H       -0.66540000       1.86320000      -0.90000000
H       -0.54890000       1.90000000       0.87270000
H       -0.98240000      -0.40810000       0.05010000
H        0.31740000      -0.16020000      -2.02770000
H       -0.14960000      -2.42310000      -1.09950000
H        1.34910000      -2.30800000      -2.04560000
H        2.82550000      -3.50250000       0.95840000
