19
Properties=species:S:1:pos:R:3 gdb_77623=T pbc="F F F"
C        0.01870000       1.57680000      -0.01630000
C        0.05890000       0.06710000      -0.09070000
C        0.65740000      -0.74810000      -1.22030000
C       -0.06760000      -1.83830000      -1.95090000
C        1.95370000      -0.08830000      -1.68200000
O        2.46600000      -0.01290000      -0.32620000
C        1.32070000      -0.73040000       0.16540000
C        1.49270000      -1.72370000       1.16470000
C        1.62300000      -2.56970000       2.01110000
H        0.99710000       2.00730000      -0.24080000
H       -0.71420000       1.98890000      -0.71830000
H       -0.26180000       1.90190000       0.99050000
H       -0.81530000      -0.43340000       0.32160000
H       -0.67460000      -1.43260000      -2.76930000
H        0.63160000      -2.56460000      -2.37960000
H       -0.74070000      -2.37900000      -1.27840000
H        2.57830000      -0.75450000      -2.28900000
H        1.89070000       0.89600000      -2.16000000
H        1.74380000      -3.31310000       2.75950000
