15
Properties=species:S:1:pos:R:3 gdb_33691=T pbc="F F F"
N        0.05640000      -1.12500000      -0.05440000
C        0.03290000       0.03150000      -0.02660000
C       -0.04960000       1.45280000       0.01050000
C       -1.20420000       2.30890000       0.61860000
C       -0.50640000       3.59450000       0.98980000
C        0.98540000       3.33210000       1.06830000
N        1.16690000       2.29800000       0.03690000
C        0.18580000       2.50720000      -1.03080000
C       -0.96090000       3.36870000      -0.43530000
H       -2.12570000       1.93280000       1.03590000
H       -1.01060000       4.32250000       1.61250000
H        1.59180000       4.20550000       0.81080000
H        1.30690000       2.94280000       2.03820000
H        0.48330000       2.40990000      -2.06620000
H       -1.66630000       3.97700000      -0.98070000
