21
Properties=species:S:1:pos:R:3 gdb_36427=T pbc="F F F"
C       -0.00290000      -1.17620000      -0.23530000
C       -0.03620000       0.01660000      -0.08740000
C       -0.03740000       1.46450000       0.08980000
C        1.37790000       2.05680000       0.09490000
C        2.22160000       2.03770000      -1.21450000
C        2.64550000       3.51540000      -0.96010000
C        1.85500000       4.56400000      -1.77410000
C        0.70020000       4.49340000      -0.72890000
C        1.57820000       3.59140000       0.19300000
H        0.01200000      -2.22950000      -0.36650000
H       -0.63370000       1.92240000      -0.70950000
H       -0.54320000       1.71890000       1.03120000
H        1.94520000       1.57680000       0.89900000
H        3.02890000       1.30320000      -1.23740000
H        1.62580000       1.91010000      -2.12460000
H        3.71060000       3.68470000      -0.79690000
H        2.34150000       5.54330000      -1.78620000
H        1.61020000       4.29180000      -2.80560000
H        0.43200000       5.45500000      -0.28570000
H       -0.22200000       4.03070000      -1.09100000
H        1.78800000       3.99960000       1.18330000
