19
Properties=species:S:1:pos:R:3 gdb_116432=T pbc="F F F"
O       -0.01440000       1.41770000      -0.06760000
C        0.05230000       0.00820000      -0.00400000
C       -1.34480000      -0.60080000       0.01660000
O       -1.99550000      -0.15820000      -1.17560000
C       -3.33060000      -0.62150000      -1.30250000
C       -3.35950000      -2.14200000      -1.43750000
C       -2.67120000      -2.79550000      -0.22540000
C       -1.34360000      -2.13150000       0.11060000
O       -0.36690000      -2.74920000       0.46400000
H       -0.60110000       1.62260000      -0.80510000
H        0.61220000      -0.41680000      -0.85040000
H        0.58190000      -0.26020000       0.91220000
H       -1.89470000      -0.21110000       0.89400000
H       -3.92860000      -0.29780000      -0.43350000
H       -3.73810000      -0.13510000      -2.19300000
H       -4.39190000      -2.49650000      -1.53010000
H       -2.83380000      -2.42090000      -2.35750000
H       -3.31090000      -2.67040000       0.66120000
H       -2.50470000      -3.86720000      -0.35720000
