14
Properties=species:S:1:pos:R:3 gdb_56433=T pbc="F F F"
N       -0.06020000       1.26430000      -0.16020000
C        0.06290000      -0.07160000      -0.00910000
O        1.09690000      -0.69280000       0.13400000
C       -1.29790000      -0.79110000      -0.00880000
O       -2.34560000      -0.18940000       0.00200000
C       -1.26970000      -2.32720000      -0.01990000
O       -2.50760000      -2.83640000       0.40370000
C       -0.90590000      -2.73060000      -1.38590000
C       -0.64270000      -3.03230000      -2.51890000
H        0.75830000       1.84880000      -0.13310000
H       -0.97950000       1.67190000      -0.21490000
H       -0.49060000      -2.66400000       0.67270000
H       -3.17230000      -2.17770000       0.15360000
H       -0.39680000      -3.32180000      -3.51110000
