20
Properties=species:S:1:pos:R:3 gdb_52718=T pbc="F F F"
C        0.01390000       1.48160000      -0.03140000
C        0.01870000       0.02540000      -0.01880000
C        0.02780000      -1.17880000       0.00040000
C        0.02450000      -2.64180000      -0.00550000
C       -1.40230000      -3.18520000       0.21630000
C        0.66960000      -3.15920000      -1.31380000
C        0.88150000      -4.68710000      -1.32270000
C        1.57600000      -5.13950000      -2.52590000
N        2.12520000      -5.48130000      -3.48350000
H        0.62650000       1.88870000       0.78050000
H        0.41220000       1.87220000      -0.97430000
H       -1.00050000       1.87750000       0.08850000
H        0.65050000      -2.98800000       0.83080000
H       -1.40650000      -4.27500000       0.31310000
H       -1.83030000      -2.76650000       1.13020000
H       -2.05340000      -2.90820000      -0.61870000
H        0.04530000      -2.87090000      -2.16590000
H        1.63610000      -2.66640000      -1.45090000
H        1.46910000      -4.99360000      -0.44860000
H       -0.07420000      -5.21780000      -1.26180000
