15
Properties=species:S:1:pos:R:3 gdb_127347=T pbc="F F F"
C        0.03790000       1.37830000       0.11840000
N        0.00530000      -0.06290000       0.00180000
C       -0.19060000      -0.83180000      -1.07990000
N       -0.14470000      -2.11520000      -0.75570000
C        0.08960000      -2.05650000       0.57860000
O        0.22230000      -3.12770000       1.38670000
C        0.11530000      -4.37740000       0.84190000
N        0.24180000      -5.36720000       1.60870000
N        0.19110000      -0.84630000       1.09970000
H        1.01020000       1.70170000       0.49770000
H       -0.13140000       1.81280000      -0.86840000
H       -0.74210000       1.71640000       0.80490000
H       -0.36030000      -0.43040000      -2.06780000
H       -0.07380000      -4.36260000      -0.23200000
H        0.13990000      -6.22770000       1.07350000
