16
Properties=species:S:1:pos:R:3 gdb_9331=T pbc="F F F"
C       -0.05230000       1.38230000      -0.05250000
C       -0.19770000      -0.09710000       0.25620000
O        0.83390000      -0.46860000       1.15580000
C        0.79410000      -1.81370000       1.50900000
C        1.92180000      -2.13260000       2.46770000
O        2.73920000      -1.34480000       2.87210000
C        1.99980000      -3.58940000       2.94310000
O        1.22880000      -4.44470000       2.59400000
H        0.92160000       1.58480000      -0.50650000
H       -0.83470000       1.70320000      -0.74630000
H       -0.13330000       1.97430000       0.86320000
H       -1.18270000      -0.30790000       0.70490000
H       -0.12750000      -0.69760000      -0.66600000
H       -0.15670000      -2.10000000       1.99510000
H        0.88830000      -2.48730000       0.63730000
H        2.84340000      -3.76790000       3.64280000
