15
Properties=species:S:1:pos:R:3 gdb_105576=T pbc="F F F"
C       -0.04980000       1.46360000      -0.03190000
O        0.07730000       0.03840000       0.00910000
C        0.66840000      -0.53030000      -1.11760000
C        0.48080000      -2.06850000      -1.14780000
O       -0.32130000      -1.95700000      -2.36210000
C       -0.20430000      -0.58890000      -2.38770000
N       -0.67920000       0.28180000      -3.14770000
C        2.04600000      -0.06260000      -1.34170000
N        3.13040000       0.30170000      -1.50280000
H        0.93560000       1.94450000      -0.05920000
H       -0.63540000       1.78070000      -0.90030000
H       -0.56410000       1.74110000       0.88890000
H        1.37610000      -2.66790000      -1.31430000
H       -0.10940000      -2.43470000      -0.30690000
H       -1.27000000      -0.12170000      -3.87690000
