18
Properties=species:S:1:pos:R:3 gdb_80186=T pbc="F F F"
C       -0.10480000       1.57300000       0.01640000
C        0.02310000       0.06850000       0.05820000
C        1.32650000      -0.66290000      -0.16790000
O        2.53410000       0.05880000      -0.04840000
C        2.70430000       0.47030000       1.25650000
O        3.63270000       1.13860000       1.62240000
N        1.64210000       0.00960000       1.99810000
C        1.44340000       0.38250000       3.37950000
C        0.69440000      -0.69700000       1.19630000
H        0.74440000       2.07380000       0.48630000
H       -0.16060000       1.92590000      -1.01820000
H       -1.01330000       1.89840000       0.53320000
H       -0.82120000      -0.47360000      -0.36270000
H        1.40980000      -1.50900000      -0.83800000
H        2.33960000       0.91120000       3.70790000
H        0.57390000       1.04030000       3.50000000
H        1.29840000      -0.50420000       4.00730000
H        0.24060000      -1.57790000       1.63840000
