21
Properties=species:S:1:pos:R:3 gdb_60580=T pbc="F F F"
C        2.48860000      -0.78850000       0.04120000
N        1.12000000      -1.13440000       0.40110000
C        0.93600000      -2.12690000       1.45120000
C        0.55380000      -0.70590000       1.68780000
C        1.30430000       0.15230000       2.68810000
O        1.25580000       1.52800000       2.31320000
C        0.67860000       0.03270000       4.06800000
C        0.80370000       1.12610000       5.05840000
N       -0.49600000       0.84540000       4.41320000
H        3.21440000      -0.83380000       0.86770000
H        2.82630000      -1.48280000      -0.73440000
H        2.51510000       0.22020000      -0.38740000
H        0.17650000      -2.88390000       1.27580000
H        1.82710000      -2.48940000       1.96510000
H       -0.50030000      -0.44050000       1.61590000
H        2.35040000      -0.18350000       2.75810000
H        1.41130000       1.58630000       1.36620000
H        0.62960000      -0.99390000       4.42510000
H        0.85050000       0.89130000       6.11800000
H        1.33940000       2.01960000       4.75480000
H       -0.62290000       1.53100000       3.67030000
