17
Properties=species:S:1:pos:R:3 gdb_81280=T pbc="F F F"
C       -0.08470000       1.52280000       0.00840000
C       -0.02770000       0.00370000      -0.01460000
C        1.18280000      -0.60190000      -0.79500000
O        1.99390000      -0.49170000       0.41160000
C        0.76160000      -0.62350000       1.17400000
C        0.43530000      -2.11860000       1.29590000
O        0.04500000      -2.64110000       2.31600000
C        0.60250000      -2.82370000      -0.00480000
C        0.93460000      -2.07010000      -1.06270000
H        0.89880000       1.94410000       0.23490000
H       -0.41360000       1.91510000      -0.95990000
H       -0.79240000       1.87280000       0.76700000
H       -1.00210000      -0.43690000      -0.23920000
H        1.60880000      -0.05450000      -1.63880000
H        0.78680000      -0.12390000       2.14460000
H        0.40960000      -3.89000000      -0.04390000
H        1.01420000      -2.46620000      -2.07020000
