23
Properties=species:S:1:pos:R:3 gdb_121132=T pbc="F F F"
C       -0.16600000       1.55270000      -0.05610000
C       -0.02070000       0.03570000       0.01010000
C       -1.29130000      -0.67140000      -0.43970000
O        1.11950000      -0.39300000      -0.79590000
C        1.86770000      -0.77940000       0.36970000
C        0.65420000      -0.55050000       1.29350000
C        0.82580000       0.30150000       2.54370000
C        1.60230000      -0.42510000       3.63670000
O        1.71520000       0.45190000       4.74640000
H        0.76450000       2.05600000       0.21750000
H       -0.41970000       1.85030000      -1.07840000
H       -0.96040000       1.90690000       0.60940000
H       -1.56030000      -0.36690000      -1.45650000
H       -1.15100000      -1.75590000      -0.43440000
H       -2.12810000      -0.42410000       0.22310000
H        2.25310000      -1.80270000       0.29210000
H        2.71220000      -0.10020000       0.55970000
H        0.17690000      -1.49920000       1.56230000
H        1.35330000       1.23340000       2.31250000
H       -0.15320000       0.58500000       2.94910000
H        1.07510000      -1.35360000       3.91240000
H        2.59560000      -0.71740000       3.25740000
H        2.21400000       0.00400000       5.43570000
