19
Properties=species:S:1:pos:R:3 gdb_90213=T pbc="F F F"
O        0.12320000       1.27700000      -0.35610000
C        0.03490000      -0.08820000      -0.01220000
C        0.14220000      -0.40190000       1.54280000
C       -1.41080000      -0.41050000       1.60400000
C       -2.31120000       0.84150000       1.55220000
C       -2.86370000      -0.07500000       0.44630000
C       -2.59320000      -1.39870000       1.30170000
C       -1.83080000      -2.07720000       0.15230000
C       -1.43660000      -0.59010000       0.05020000
H        1.02590000       1.56760000      -0.18770000
H        0.68670000      -0.70210000      -0.65160000
H        0.60890000      -1.37110000       1.73890000
H        0.63900000       0.35970000       2.15150000
H       -2.95840000       1.01980000       2.41790000
H       -1.84070000       1.76710000       1.21500000
H       -3.72750000       0.08100000      -0.20950000
H       -3.30260000      -1.84280000       2.00900000
H       -1.04630000      -2.78380000       0.44460000
H       -2.42270000      -2.49100000      -0.67050000
