20
Properties=species:S:1:pos:R:3 gdb_46036=T pbc="F F F"
N       -0.04050000       1.14780000       0.37430000
C        0.01290000      -0.05940000       0.00740000
C       -0.96990000      -1.14590000       0.38840000
C       -0.70980000      -2.23310000      -0.66220000
C        0.77030000      -1.99880000      -1.03010000
O        0.97990000      -0.58330000      -0.80310000
C        1.74890000      -2.81160000      -0.22020000
C        2.22980000      -4.13840000      -0.75720000
C        3.17050000      -2.96260000      -0.69180000
H        0.74990000       1.67020000      -0.00830000
H       -0.73800000      -1.49590000       1.40040000
H       -1.99020000      -0.76230000       0.40280000
H       -0.88410000      -3.24830000      -0.30130000
H       -1.34180000      -2.07200000      -1.54040000
H        0.95930000      -2.16790000      -2.09550000
H        1.60020000      -2.75120000       0.85510000
H        2.36750000      -4.95440000      -0.05710000
H        1.87430000      -4.45010000      -1.73430000
H        3.44620000      -2.47870000      -1.62290000
H        3.95780000      -2.97090000       0.05310000
