18
Properties=species:S:1:pos:R:3 gdb_101500=T pbc="F F F"
C       -0.27460000       1.30820000       0.07660000
C       -0.19750000      -0.21250000      -0.08990000
C        0.83080000      -0.61110000      -1.16690000
O        2.14680000      -0.21770000      -0.82730000
N        0.12520000      -0.99490000       1.10400000
C        0.38680000      -0.43650000       2.19730000
O        0.71770000      -1.13340000       3.33200000
C        0.35790000      -2.45720000       3.43400000
O        0.75910000      -3.12990000       4.32970000
H        0.70700000       1.72610000       0.31680000
H       -0.60530000       1.76010000      -0.86300000
H       -0.98890000       1.59990000       0.85270000
H       -1.17130000      -0.58540000      -0.43650000
H        0.76530000      -1.69450000      -1.33760000
H        0.58860000      -0.10120000      -2.10470000
H        2.41260000      -0.74470000      -0.06590000
H        0.41210000       0.63130000       2.41600000
H       -0.32430000      -2.76860000       2.63270000
