17
Properties=species:S:1:pos:R:3 gdb_125602=T pbc="F F F"
C        0.00920000       1.47870000      -0.09450000
C        0.00690000      -0.01150000       0.02950000
N       -0.02480000      -0.78640000      -1.05670000
N       -0.01670000      -2.04100000      -0.58810000
C        0.01930000      -2.10140000       0.77690000
C        0.03360000      -3.31980000       1.48480000
C        0.04560000      -4.36330000       2.08740000
C        0.03560000      -0.78260000       1.21820000
C        0.07490000      -0.30140000       2.63290000
H        0.90720000       1.91790000       0.35530000
H       -0.02300000       1.76440000      -1.14780000
H       -0.85450000       1.92520000       0.41150000
H       -0.03700000      -2.81630000      -1.22860000
H        0.05570000      -5.28100000       2.62140000
H        0.96430000       0.30950000       2.82760000
H       -0.79660000       0.31880000       2.87330000
H        0.08860000      -1.14340000       3.32960000
