19
Properties=species:S:1:pos:R:3 gdb_106800=T pbc="F F F"
C       -0.10220000       1.49550000      -0.06520000
C        0.06170000       0.00990000       0.06380000
C        1.37160000      -0.72460000      -0.18440000
C        0.70110000      -0.75900000       1.17950000
C        1.32440000      -0.23850000       2.44070000
O        2.25340000      -1.15150000       3.00100000
O       -0.14290000      -1.86580000       1.43960000
C       -1.02750000      -1.96950000       0.33790000
O       -1.12370000      -0.69390000      -0.25930000
H        0.79970000       2.01370000       0.27100000
H       -0.28060000       1.77210000      -1.10940000
H       -0.95100000       1.84390000       0.53070000
H        1.38240000      -1.61650000      -0.80090000
H        2.26490000      -0.11380000      -0.26520000
H        1.88140000       0.67880000       2.22740000
H        0.52520000       0.00810000       3.15680000
H        1.78240000      -1.98250000       3.12720000
H       -0.64330000      -2.70580000      -0.38700000
H       -2.01520000      -2.28120000       0.69240000
