15
Properties=species:S:1:pos:R:3 gdb_73738=T pbc="F F F"
C       -0.00530000       1.48120000       0.07560000
C        0.01110000      -0.00530000      -0.00530000
C       -0.01370000      -0.79130000      -1.09840000
C       -0.06230000      -0.36390000      -2.44930000
N       -0.10200000       0.00140000      -3.54720000
C        0.01750000      -2.24430000      -0.69930000
O        0.00710000      -3.22070000      -1.40950000
N        0.06140000      -2.21250000       0.67550000
C        0.06150000      -0.88000000       1.22480000
H        0.88710000       1.85170000       0.59430000
H       -0.04270000       1.93190000      -0.91780000
H       -0.87180000       1.82940000       0.65050000
H        0.08870000      -3.05720000       1.22030000
H        0.96260000      -0.66640000       1.81870000
H       -0.80530000      -0.68930000       1.87480000
