15
Properties=species:S:1:pos:R:3 gdb_43200=T pbc="F F F"
O       -0.01560000       0.11870000      -0.76330000
C       -0.04420000       1.20540000      -0.27170000
C       -1.16060000       2.16760000       0.22640000
O       -1.36470000       2.02680000       1.64990000
C       -0.50350000       3.15820000       1.93720000
C       -0.07540000       3.26990000       0.46440000
C        1.01600000       2.26330000       0.06070000
C        2.40050000       2.09070000       0.52490000
O        2.10770000       2.55560000      -0.79100000
H       -2.08540000       2.26690000      -0.34610000
H       -1.08810000       4.00960000       2.30440000
H        0.27920000       2.91240000       2.66350000
H       -0.05660000       4.23720000      -0.03190000
H        2.82530000       2.83120000       1.20130000
H        2.81800000       1.08740000       0.58550000
