15
Properties=species:S:1:pos:R:3 gdb_1536=T pbc="F F F"
O       -0.16680000       1.44930000       0.01140000
C        0.01930000       0.04140000       0.00200000
C       -1.36370000      -0.59300000       0.01210000
C       -1.31910000      -2.11260000       0.00350000
O       -0.28510000      -2.73420000      -0.00930000
C       -2.68220000      -2.80150000       0.01230000
O       -2.51080000      -4.19340000       0.00400000
H        0.70080000       1.86360000       0.00540000
H        0.57050000      -0.29180000      -0.88850000
H        0.58780000      -0.30140000       0.87790000
H       -1.92280000      -0.25070000       0.89290000
H       -1.93990000      -0.24130000      -0.85390000
H       -3.22960000      -2.44330000       0.90200000
H       -3.24510000      -2.43470000      -0.86410000
H       -3.38180000      -4.60060000       0.00930000
