20
Properties=species:S:1:pos:R:3 gdb_103662=T pbc="F F F"
C       -0.48490000       1.64300000       0.02430000
C        0.09720000       0.23450000       0.06320000
C       -0.98810000      -0.81830000      -0.15880000
O       -1.53800000      -0.61650000      -1.45180000
C        1.33430000      -0.02340000      -0.85160000
C        2.10100000      -0.65180000       0.36110000
C        0.97040000      -0.11920000       1.30590000
C        2.22470000      -2.10000000       0.32110000
N        2.30700000      -3.25370000       0.28880000
H        0.29830000       2.39740000       0.15360000
H       -0.98680000       1.82480000      -0.92980000
H       -1.22150000       1.78360000       0.82420000
H       -0.55650000      -1.82640000      -0.06640000
H       -1.75660000      -0.71450000       0.62580000
H       -2.15100000      -1.33350000      -1.63690000
H        1.16610000      -0.67150000      -1.71210000
H        1.81530000       0.89710000      -1.18900000
H        3.08960000      -0.22680000       0.54870000
H        1.29720000       0.76440000       1.85850000
H        0.55480000      -0.84130000       2.01260000
