18
Properties=species:S:1:pos:R:3 gdb_14101=T pbc="F F F"
C       -0.05830000       1.49650000      -0.10040000
C       -0.04400000       0.00080000       0.06820000
O        1.22680000      -0.66090000      -0.10730000
C        0.63640000      -0.67360000       1.17680000
C        1.22120000      -0.09270000       2.46780000
C        0.34340000      -1.12230000       3.24180000
C        0.16220000      -1.92230000       1.91270000
O       -1.11650000      -2.37740000       1.54500000
H        0.79520000       1.95780000       0.40280000
H       -0.01350000       1.76300000      -1.16150000
H       -0.98120000       1.91920000       0.31190000
H       -0.87480000      -0.53670000      -0.38880000
H        2.29130000      -0.30010000       2.55630000
H        1.04970000       0.96650000       2.66890000
H        0.80160000      -1.64270000       4.08460000
H       -0.61170000      -0.69200000       3.55230000
H        0.91570000      -2.71860000       1.82760000
H       -1.24570000      -3.26040000       1.90310000
