19
Properties=species:S:1:pos:R:3 gdb_107591=T pbc="F F F"
C       -0.47230000       1.42170000      -0.24050000
N        0.05430000       0.08070000       0.04600000
C        0.82110000      -0.48500000      -1.01630000
C        0.07300000      -1.04740000      -2.22910000
C        0.83840000      -1.98310000      -1.36800000
N        2.14320000      -2.39930000      -1.86220000
C        2.93460000      -1.16900000      -2.06340000
C        2.21800000      -0.03420000      -1.30780000
O        2.72820000       0.99700000      -0.93530000
H        0.30440000       2.15940000      -0.47960000
H       -1.16510000       1.36180000      -1.08610000
H       -1.03730000       1.77160000       0.62840000
H        0.62580000       0.12260000       0.88400000
H       -1.00410000      -1.04920000      -2.10840000
H        0.42440000      -0.82270000      -3.23040000
H        0.30620000      -2.69930000      -0.75460000
H        2.59100000      -2.95650000      -1.14280000
H        3.95830000      -1.28000000      -1.70000000
H        3.00020000      -0.90680000      -3.12790000
