21
Properties=species:S:1:pos:R:3 gdb_79533=T pbc="F F F"
O        0.16000000       1.39490000       0.14620000
C        0.06520000      -0.00820000      -0.00480000
C       -1.33940000      -0.56220000      -0.23620000
C       -1.68860000      -0.29380000      -1.75380000
C       -2.08390000      -1.78490000      -1.87730000
C       -1.16190000      -2.06090000      -0.66640000
C        0.33170000      -2.10160000      -1.10150000
C        0.66710000      -0.60860000      -1.30310000
C       -0.28770000      -0.04050000      -2.37630000
H       -0.41750000       1.80910000      -0.50260000
H        0.54110000      -0.42920000       0.88730000
H       -2.10810000      -0.33630000       0.50150000
H       -2.43450000       0.45790000      -2.01920000
H       -3.13710000      -1.94690000      -1.62890000
H       -1.85880000      -2.29580000      -2.82040000
H       -1.43910000      -2.86000000       0.02290000
H        0.95730000      -2.52840000      -0.31000000
H        0.48450000      -2.70540000      -2.00230000
H        1.72360000      -0.39170000      -1.47050000
H       -0.17400000      -0.52470000      -3.35140000
H       -0.10140000       1.02920000      -2.52730000
