15
Properties=species:S:1:pos:R:3 gdb_84470=T pbc="F F F"
O        0.01580000       1.43260000      -0.06640000
C        0.05990000       0.01960000      -0.04070000
C        0.71820000      -0.53160000       1.21900000
C       -0.08650000      -1.32760000       1.92060000
C       -1.42240000      -1.43890000       1.24320000
N       -2.12060000      -0.11230000       1.14330000
C       -1.33890000      -0.61430000       0.00230000
C       -2.21200000      -2.63450000       1.32430000
N       -2.85310000      -3.59400000       1.40620000
H       -0.58590000       1.68890000       0.64630000
H        0.59930000      -0.27860000      -0.94620000
H        1.71180000      -0.21640000       1.51430000
H        0.12840000      -1.81150000       2.86440000
H       -3.11270000      -0.26530000       0.96530000
H       -1.85100000      -0.89930000      -0.90890000
