20
Properties=species:S:1:pos:R:3 gdb_88080=T pbc="F F F"
C       -0.05100000       1.53650000      -0.04670000
C       -0.03810000       0.03200000       0.09020000
N        1.25010000      -0.65250000      -0.15580000
C        0.65090000      -0.68830000       1.18910000
C        1.41740000      -0.00490000       2.32510000
O        1.78680000      -1.03520000       3.24640000
C        0.93100000      -2.13080000       3.06110000
C       -0.55560000      -1.90480000       3.11680000
C        0.16580000      -1.98490000       1.77560000
H        0.87500000       1.97360000       0.33510000
H       -0.14800000       1.82690000      -1.09830000
H       -0.89330000       1.97250000       0.50160000
H       -0.93070000      -0.46070000      -0.29570000
H        1.10070000      -1.53660000      -0.63720000
H        2.32780000       0.48240000       1.96960000
H        0.79080000       0.74470000       2.82990000
H        1.37140000      -3.05760000       3.40830000
H       -1.17600000      -2.75300000       3.38580000
H       -0.93450000      -0.94650000       3.45590000
H       -0.03600000      -2.81540000       1.10800000
