23
Properties=species:S:1:pos:R:3 gdb_109095=T pbc="F F F"
C        0.12010000       1.51670000       0.22810000
C        0.02430000       0.01150000      -0.08220000
C       -1.39450000      -0.50670000      -0.11350000
C       -1.92480000      -0.96400000      -1.26170000
C       -3.26870000      -1.46200000      -1.54050000
C       -4.27530000      -1.79680000      -0.71830000
C       -4.31420000      -1.81470000       0.78250000
C       -2.97180000      -1.72770000       1.51240000
C       -2.14630000      -0.46590000       1.19920000
H        1.16500000       1.84160000       0.25690000
H       -0.39870000       2.10390000      -0.53630000
H       -0.32910000       1.75820000       1.19670000
H        0.51140000      -0.19030000      -1.04220000
H        0.59410000      -0.53890000       0.68100000
H       -1.28060000      -0.93190000      -2.13910000
H       -3.47470000      -1.56440000      -2.60480000
H       -5.20370000      -2.11390000      -1.19080000
H       -4.97540000      -1.00510000       1.12910000
H       -4.82160000      -2.73760000       1.09840000
H       -3.17080000      -1.76040000       2.58990000
H       -2.36970000      -2.61330000       1.27970000
H       -1.42450000      -0.30820000       2.00920000
H       -2.80820000       0.41190000       1.22180000
