16
Properties=species:S:1:pos:R:3 gdb_36458=T pbc="F F F"
N       -0.00350000      -1.15070000      -0.38030000
C        0.00570000      -0.03380000      -0.08610000
C        0.02650000       1.37630000       0.29690000
C        1.35490000       2.05710000      -0.04290000
O        1.56650000       2.18200000      -1.46420000
C        1.79160000       3.61010000      -1.38150000
C        1.43520000       3.57850000       0.10060000
C        0.71030000       4.51970000       0.95210000
O        2.11510000       4.26090000       1.12210000
H       -0.79200000       1.89790000      -0.21000000
H       -0.14910000       1.44820000       1.37710000
H        2.18760000       1.53510000       0.44620000
H        2.83520000       3.87990000      -1.58260000
H        1.12780000       4.17220000      -2.04730000
H        0.46070000       5.50810000       0.56950000
H        0.07100000       4.15610000       1.75520000
