15
Properties=species:S:1:pos:R:3 gdb_14907=T pbc="F F F"
N       -0.06780000      -1.16760000      -0.05780000
C       -0.02890000      -0.01280000      -0.02800000
C        0.01150000       1.44960000       0.02750000
C       -0.70380000       1.96500000       1.30070000
O       -0.52620000       3.35700000       1.42070000
C        0.82130000       3.72180000       1.66160000
C        1.79480000       2.99830000       0.77520000
C        1.43780000       1.97120000       0.01100000
H       -0.53070000       1.82440000      -0.85180000
H       -1.77930000       1.78520000       1.24130000
H       -0.30760000       1.43160000       2.17790000
H        0.87680000       4.80270000       1.48970000
H        1.08480000       3.55290000       2.72140000
H        2.82110000       3.35450000       0.78400000
H        2.14800000       1.46820000      -0.63640000
