19
Properties=species:S:1:pos:R:3 gdb_104757=T pbc="F F F"
O        0.25430000       1.29120000      -0.48370000
C        0.08870000       0.06210000       0.19750000
C       -1.33230000      -0.47070000       0.09850000
C       -2.33530000       0.25660000       0.96320000
O       -2.35800000       1.63120000       0.56340000
C       -1.79360000      -1.00470000      -1.22610000
C       -1.57270000      -1.97110000      -0.07200000
C       -0.48910000      -2.90990000      -0.08730000
C        0.40540000      -3.71460000      -0.09400000
H       -0.48600000       1.84940000      -0.21230000
H        0.78670000      -0.64850000      -0.25350000
H        0.36300000       0.15150000       1.26310000
H       -3.33450000      -0.19130000       0.85380000
H       -2.04190000       0.17170000       2.02050000
H       -2.80970000       2.14170000       1.24190000
H       -2.81780000      -0.82610000      -1.53520000
H       -1.07080000      -1.02210000      -2.03310000
H       -2.47610000      -2.34780000       0.40180000
H        1.19860000      -4.42010000      -0.10320000
