16
Properties=species:S:1:pos:R:3 gdb_49598=T pbc="F F F"
O       -0.12780000       0.04110000       0.04480000
C       -0.01060000       1.24020000       0.02030000
C        1.32680000       1.96140000      -0.00310000
C        1.48800000       2.87440000      -1.23100000
N        0.47070000       3.93200000      -1.36430000
C        1.78410000       4.26410000      -0.78040000
C        1.79210000       4.26400000       0.73420000
O        0.54120000       3.92800000       1.33460000
C        1.51670000       2.89270000       1.20380000
H       -0.88630000       1.91820000       0.00720000
H        2.11730000       1.20450000       0.00010000
H        1.92220000       2.44880000      -2.12970000
H        0.44290000       4.24590000      -2.33180000
H        2.46580000       4.91570000      -1.31490000
H        2.40780000       4.97270000       1.28040000
H        1.88720000       2.47980000       2.13920000
