18
Properties=species:S:1:pos:R:3 gdb_75824=T pbc="F F F"
C       -0.22230000       1.48760000       0.09240000
C       -0.02660000      -0.00240000      -0.00650000
C       -0.76610000      -0.94790000       0.86720000
N        0.66100000      -0.68920000       1.13410000
C        1.52730000      -1.74690000       0.59220000
C        1.15980000      -1.88970000      -0.88080000
O        1.27340000      -2.84560000      -1.60510000
C        0.47500000      -0.58670000      -1.31450000
O       -0.51490000      -0.82500000      -2.28170000
H        0.69000000       2.02250000      -0.19430000
H       -1.02770000       1.81060000      -0.57560000
H       -0.47920000       1.77670000       1.11450000
H       -1.44480000      -0.55810000       1.61950000
H       -1.05550000      -1.91490000       0.45830000
H        2.57760000      -1.44070000       0.68320000
H        1.40710000      -2.69240000       1.12830000
H        1.26280000       0.07970000      -1.71580000
H       -0.24770000      -1.63860000      -2.73550000
