18
Properties=species:S:1:pos:R:3 gdb_31534=T pbc="F F F"
C       -0.17760000       1.43090000      -0.17230000
N       -0.08540000       0.09550000       0.41590000
C       -1.16700000      -0.75930000       0.26410000
C       -1.28590000      -2.08890000       0.00400000
C       -2.69860000      -2.40150000       0.07860000
C       -3.35930000      -3.72550000      -0.13500000
C       -3.30690000      -1.22930000       0.37200000
O       -4.59630000      -0.91890000       0.62110000
O       -2.39280000      -0.20870000       0.50250000
H        0.73170000       1.98490000       0.07260000
H       -0.30520000       1.42440000      -1.26610000
H       -1.02540000       1.95980000       0.26740000
H        0.77400000      -0.37750000       0.17260000
H       -0.48320000      -2.77210000      -0.22690000
H       -3.04900000      -4.45980000       0.61800000
H       -4.44610000      -3.62560000      -0.07560000
H       -3.10930000      -4.14720000      -1.11580000
H       -4.88370000      -0.22100000       0.01930000
