13
Properties=species:S:1:pos:R:3 gdb_62352=T pbc="F F F"
N       -0.17970000       1.42610000       0.04560000
C       -0.06830000       0.00180000       0.03860000
C        1.04810000      -0.59340000      -0.67820000
N        1.95760000      -1.02250000      -1.25040000
C       -0.52700000      -0.81550000       1.22930000
O       -1.54770000      -0.10450000       1.94870000
C       -2.38490000      -0.16110000       0.83650000
O       -3.50940000       0.19200000       0.75170000
C       -1.34810000      -0.86410000      -0.02490000
H        0.63200000       1.86080000       0.47170000
H       -0.28420000       1.79120000      -0.89500000
H        0.05560000      -1.55580000       1.75800000
H       -1.50940000      -1.62410000      -0.77460000
