15
Properties=species:S:1:pos:R:3 gdb_133524=T pbc="F F F"
C       -0.03880000       1.55500000       0.01830000
C       -0.00220000       0.01090000       0.02990000
C        0.73740000      -0.52550000       1.27520000
C       -1.37680000      -0.51390000       0.01010000
N       -2.46240000      -0.90680000       0.03020000
C        0.71240000      -0.49150000      -1.24290000
F        1.97460000      -0.04060000      -1.27570000
F        0.75450000      -1.82670000      -1.28520000
F        0.09720000      -0.06390000      -2.34990000
H        0.98180000       1.94390000       0.01520000
H       -0.56290000       1.92810000      -0.86310000
H       -0.55240000       1.91810000       0.91070000
H        0.23170000      -0.18310000       2.18020000
H        0.75960000      -1.61650000       1.27830000
H        1.76300000      -0.15000000       1.28010000
