19
Properties=species:S:1:pos:R:3 gdb_84520=T pbc="F F F"
C       -0.07920000       1.57840000      -0.00920000
C       -0.02250000       0.04200000      -0.00430000
C        0.87600000      -0.49800000      -1.11500000
C        2.08490000      -0.89220000      -0.67150000
C        2.13090000      -0.70180000       0.76940000
C        2.95780000      -0.38500000       1.76450000
C        2.11410000       0.06800000       2.94130000
O        0.78480000       0.22650000       2.42220000
C        0.70390000      -0.54310000       1.23610000
H        0.92240000       2.00460000       0.09660000
H       -0.51140000       1.94750000      -0.94460000
H       -0.68890000       1.94040000       0.82270000
H       -1.04240000      -0.34840000      -0.09280000
H        0.57620000      -0.47630000      -2.15780000
H        2.90800000      -1.22810000      -1.28990000
H        4.03960000      -0.36360000       1.76590000
H        2.11520000      -0.66160000       3.77010000
H        2.44340000       1.03040000       3.35380000
H        0.26460000      -1.53240000       1.45730000
