21
Properties=species:S:1:pos:R:3 gdb_32624=T pbc="F F F"
C       -0.11170000       1.57550000      -0.04180000
C        0.03890000       0.05090000      -0.00980000
N        0.73010000      -0.48690000      -1.16810000
C        0.11900000      -0.82250000      -2.35070000
C        1.08570000      -1.21350000      -3.24660000
C        2.34120000      -1.09660000      -2.58390000
N        3.63780000      -1.36920000      -3.10550000
C        2.10040000      -0.63150000      -1.30440000
C        3.08100000      -0.33310000      -0.22100000
H        0.86490000       2.06720000      -0.06520000
H       -0.66820000       1.88860000      -0.92990000
H       -0.65110000       1.92370000       0.84510000
H        0.58100000      -0.25720000       0.88930000
H       -0.94780000      -0.42150000       0.03860000
H       -0.95390000      -0.76230000      -2.44760000
H        0.91830000      -1.56050000      -4.25570000
H        3.60780000      -1.43080000      -4.11660000
H        4.00180000      -2.25470000      -2.76740000
H        2.94350000       0.66430000       0.21430000
H        3.04680000      -1.05410000       0.60770000
H        4.08540000      -0.37050000      -0.65110000
