17
Properties=species:S:1:pos:R:3 gdb_52929=T pbc="F F F"
C       -0.01720000       1.45410000       0.01290000
C       -0.00080000      -0.00010000       0.01630000
C        0.01510000      -1.20530000       0.01570000
C        0.05170000      -2.63070000      -0.00960000
C        0.58690000      -3.62340000       1.09530000
C        0.09120000      -4.59170000      -0.02920000
C       -1.14860000      -3.64570000      -0.15630000
C        0.77060000      -3.60680000      -0.98890000
O        1.46550000      -3.58290000      -1.95290000
H        0.57890000       1.85510000      -0.81430000
H       -1.03720000       1.83930000      -0.09480000
H        0.39340000       1.85780000       0.94510000
H        1.65510000      -3.59630000       1.31560000
H       -0.02050000      -3.63650000       2.00300000
H        0.10400000      -5.67770000      -0.02770000
H       -1.81790000      -3.65970000       0.70670000
H       -1.69510000      -3.63940000      -1.10060000
