19
Properties=species:S:1:pos:R:3 gdb_53118=T pbc="F F F"
C       -0.11650000       1.45100000      -0.01970000
C       -0.04600000      -0.00380000      -0.01190000
C        0.06370000      -1.20480000       0.00710000
C        0.10600000      -2.65410000      -0.00770000
C        0.28100000      -3.31890000       1.39500000
O        0.99670000      -2.54580000       2.32220000
C       -1.26010000      -3.43160000       1.52070000
C       -1.34890000      -3.27330000      -0.02180000
O       -2.38580000      -2.53540000      -0.58980000
H        0.87670000       1.89200000       0.11870000
H       -0.51780000       1.82770000      -0.96690000
H       -0.75870000       1.82420000       0.78560000
H        0.78600000      -3.01120000      -0.78610000
H        0.73790000      -4.31050000       1.26500000
H        0.99830000      -3.01350000       3.16350000
H       -1.68840000      -4.32720000       1.97660000
H       -1.65550000      -2.53920000       2.01490000
H       -1.33910000      -4.24440000      -0.52400000
H       -2.20930000      -1.60500000      -0.39270000
