16
Properties=species:S:1:pos:R:3 gdb_18680=T pbc="F F F"
O        0.02590000       0.00370000      -0.45340000
C        0.00920000       1.17350000      -0.13960000
C       -1.26920000       1.96540000       0.11870000
N       -1.31580000       3.16190000      -0.73480000
C       -0.23190000       4.10790000      -0.46380000
C        1.14740000       3.48400000      -0.22170000
N        1.34700000       2.89790000       1.10170000
C        1.26070000       1.99530000      -0.07750000
H       -2.12850000       1.32310000      -0.08720000
H       -1.30630000       2.28370000       1.16660000
H       -1.27110000       2.86880000      -1.70610000
H       -0.17540000       4.80230000      -1.30770000
H       -0.49470000       4.69500000       0.42510000
H        1.99470000       3.99270000      -0.67790000
H        2.31890000       2.97410000       1.39070000
H        2.15870000       1.48730000      -0.41690000
