19
Properties=species:S:1:pos:R:3 gdb_95946=T pbc="F F F"
C       -0.46330000       1.43240000       0.07650000
C        0.30070000       0.12820000      -0.04760000
O        1.41010000       0.30970000      -0.90890000
C        2.26200000      -0.81440000      -0.75070000
C        2.04900000      -1.33330000       0.69590000
C        0.93780000      -0.42500000       1.26480000
O        1.43140000       0.67890000       2.00690000
C       -0.09710000      -1.17790000       2.09280000
O       -0.51250000      -2.27810000       1.83320000
H        0.17100000       2.20280000       0.51710000
H       -0.78880000       1.76120000      -0.91370000
H       -1.35020000       1.30230000       0.70440000
H       -0.35620000      -0.66810000      -0.43810000
H        2.00470000      -1.59800000      -1.47840000
H        3.28630000      -0.48770000      -0.94800000
H        1.71460000      -2.37260000       0.70570000
H        2.95480000      -1.25970000       1.30450000
H        2.06510000       0.35360000       2.65400000
H       -0.45990000      -0.59800000       2.97150000
