17
Properties=species:S:1:pos:R:3 gdb_9113=T pbc="F F F"
C        0.32900000       1.24080000      -0.27820000
N       -0.31480000       0.11980000       0.37360000
C        0.40630000      -0.63290000       1.07470000
O       -0.13700000      -1.68840000       1.72350000
C        0.77050000      -2.50010000       2.48720000
C       -0.09370000      -3.41260000       3.35550000
C        1.67780000      -3.25510000       1.61890000
C        2.42210000      -3.87610000       0.90910000
H        0.17690000       1.17180000      -1.36140000
H       -0.14040000       2.17560000       0.04910000
H        1.41230000       1.31170000      -0.08550000
H        1.48960000      -0.51070000       1.22500000
H        1.36870000      -1.84370000       3.13610000
H       -0.71080000      -4.05490000       2.72340000
H        0.54030000      -4.04060000       3.98580000
H       -0.74540000      -2.80580000       3.98840000
H        3.07860000      -4.42280000       0.27770000
