18
Properties=species:S:1:pos:R:3 gdb_126164=T pbc="F F F"
C        0.05280000       1.54030000       0.07650000
C       -0.00930000       0.01270000      -0.00640000
C       -1.44690000      -0.53280000      -0.06070000
C       -2.22410000      -0.15090000      -1.32200000
N       -1.41410000      -1.99940000       0.07380000
N       -0.90490000      -2.82070000      -0.82790000
N       -1.05090000      -4.01180000      -0.32550000
N       -1.64490000      -3.90890000       0.87570000
N       -1.87240000      -2.65420000       1.12890000
H        1.08880000       1.86940000       0.19420000
H       -0.34240000       2.01860000      -0.82420000
H       -0.51410000       1.91640000       0.93520000
H        0.53650000      -0.34610000      -0.88590000
H        0.48430000      -0.42120000       0.87020000
H       -1.99370000      -0.20690000       0.82850000
H       -3.22430000      -0.59150000      -1.30970000
H       -2.33170000       0.93450000      -1.37560000
H       -1.70300000      -0.49610000      -2.21870000
