20
Properties=species:S:1:pos:R:3 gdb_103202=T pbc="F F F"
C       -0.03120000       1.37320000       0.01570000
O        0.09780000      -0.03110000      -0.04780000
C        0.69470000      -0.55570000      -1.22800000
C        2.10900000      -0.02530000      -1.43340000
C        0.45500000      -2.06700000      -1.16390000
C       -0.86020000      -1.94160000      -1.82210000
C       -0.33630000      -0.57560000      -2.41110000
C        0.34580000      -1.44840000      -3.47120000
N        0.24750000      -2.62970000      -2.54440000
H        0.93860000       1.88260000       0.10190000
H       -0.56250000       1.78630000      -0.85390000
H       -0.61550000       1.59130000       0.91330000
H        2.66210000      -0.09040000      -0.49080000
H        2.64910000      -0.61130000      -2.17940000
H        2.11410000       1.01950000      -1.76060000
H        0.78500000      -2.75780000      -0.39920000
H       -1.83260000      -2.37190000      -1.62820000
H       -0.91060000       0.31610000      -2.65590000
H       -0.29100000      -1.64930000      -4.33690000
H        1.35260000      -1.18790000      -3.81500000
