19
Properties=species:S:1:pos:R:3 gdb_71782=T pbc="F F F"
C        0.00700000       1.53320000       0.02900000
C       -0.05450000       0.02700000      -0.02820000
C        0.46240000      -0.76860000      -1.25170000
C       -0.54960000      -1.87020000      -0.87100000
C       -0.10970000      -2.53810000       0.49520000
O        1.11590000      -1.95020000       0.98550000
C        0.36470000      -0.75530000       1.29170000
C       -0.98680000      -1.52220000       1.28080000
C       -1.38470000      -0.82360000      -0.05040000
H        1.04650000       1.88040000       0.08040000
H       -0.45430000       1.98600000      -0.85550000
H       -0.51440000       1.92290000       0.91170000
H        0.17470000      -0.27440000      -2.18510000
H        1.52200000      -1.03480000      -1.27670000
H       -0.97000000      -2.53280000      -1.62750000
H       -0.12360000      -3.62530000       0.58070000
H        0.79420000      -0.18000000       2.11450000
H       -1.60080000      -1.74700000       2.15090000
H       -2.36410000      -0.44000000      -0.32880000
