21
Properties=species:S:1:pos:R:3 gdb_42093=T pbc="F F F"
C        0.30310000       1.64270000       0.43510000
C        1.55470000       1.88540000      -0.41180000
O        2.13540000       0.60400000      -0.61810000
C        1.14890000      -0.44500000      -0.43740000
C       -0.16820000       0.29770000      -0.12790000
C        1.10180000      -1.37360000      -1.67850000
C        1.97810000      -2.60240000      -1.33870000
C        2.10390000      -2.52400000       0.16350000
C        1.64420000      -1.37440000       0.65090000
H        0.57260000       1.55000000       1.49280000
H       -0.43910000       2.43970000       0.34280000
H        1.28600000       2.34700000      -1.37630000
H        2.29710000       2.52800000       0.07310000
H       -0.80630000      -0.26980000       0.55400000
H       -0.72980000       0.45520000      -1.05610000
H        0.06910000      -1.69550000      -1.84780000
H        1.43360000      -0.83280000      -2.56750000
H        1.52500000      -3.54220000      -1.67480000
H        2.96770000      -2.55180000      -1.81150000
H        2.55040000      -3.31860000       0.75220000
H        1.66450000      -1.07160000       1.69230000
