17
Properties=species:S:1:pos:R:3 gdb_67313=T pbc="F F F"
C       -0.05050000       1.48080000       0.01980000
C       -0.05620000      -0.01790000       0.00050000
C        0.83400000      -0.97890000      -0.85840000
O        1.95120000      -0.96560000       0.07750000
C        0.76020000      -0.99080000       0.92090000
C       -0.03510000      -1.95180000      -0.00980000
C       -1.26420000      -1.00410000      -0.06440000
C       -2.18960000      -1.01170000       1.05080000
C       -2.94490000      -1.00470000       1.98730000
H        0.97810000       1.84800000       0.09530000
H       -0.49650000       1.89290000      -0.89170000
H       -0.61840000       1.86150000       0.87480000
H        1.04180000      -0.97440000      -1.92830000
H        0.88090000      -0.99920000       2.00280000
H       -0.00710000      -3.04020000      -0.01250000
H       -1.79810000      -1.00490000      -1.02130000
H       -3.61650000      -1.00520000       2.80990000
