22
Properties=species:S:1:pos:R:3 gdb_86087=T pbc="F F F"
C       -0.69880000       1.26170000       0.06260000
C        0.11980000      -0.02190000      -0.05020000
C        1.27140000       0.03640000      -1.08650000
C        2.34490000      -0.86340000      -0.50440000
C        3.53460000      -1.28400000      -1.30630000
C        2.07530000      -1.15510000       0.77060000
C        0.81480000      -0.51720000       1.23410000
C        0.70380000       0.16770000       2.55440000
N        0.06180000      -1.14200000       2.33670000
H       -0.06860000       2.11310000       0.34050000
H       -1.18010000       1.49850000      -0.89200000
H       -1.49420000       1.17230000       0.81170000
H       -0.55260000      -0.83420000      -0.36050000
H        0.94940000      -0.27940000      -2.08640000
H        1.65290000       1.06280000      -1.19870000
H        4.10130000      -0.41340000      -1.66220000
H        4.21210000      -1.91550000      -0.72510000
H        3.23170000      -1.84170000      -2.20200000
H        2.68960000      -1.75720000       1.43070000
H        1.54490000       0.15400000       3.24310000
H        0.07860000       1.05330000       2.62790000
H       -0.93670000      -1.00950000       2.18350000
