15
Properties=species:S:1:pos:R:3 gdb_124140=T pbc="F F F"
C       -0.00020000       1.52000000       0.00500000
C        0.02920000       0.06590000       0.01140000
C        0.04770000      -1.14040000       0.01640000
C        0.05290000      -2.55120000       0.02140000
C        1.13910000      -3.41550000       0.07870000
N        0.64950000      -4.67050000       0.05840000
N       -0.70750000      -4.71260000      -0.00940000
C       -1.06140000      -3.43930000      -0.03140000
O       -2.34830000      -3.05530000      -0.09710000
H        0.54090000       1.93010000      -0.85560000
H       -1.03010000       1.89040000      -0.04620000
H        0.45520000       1.93610000       0.91120000
H        2.19580000      -3.20820000       0.13090000
H        1.16030000      -5.53480000       0.08680000
H       -2.88380000      -3.85850000      -0.12120000
