20
Properties=species:S:1:pos:R:3 gdb_94289=T pbc="F F F"
C       -0.35930000       1.44870000       0.02100000
C        0.08180000      -0.00300000       0.01420000
O        1.31960000      -0.18160000      -0.72160000
C        1.97420000      -0.82230000       0.39470000
C        0.73910000      -0.61790000       1.25980000
C        0.69540000      -0.30800000       2.69550000
C       -0.71160000       0.02020000       3.18760000
C       -1.15640000      -1.30290000       2.51290000
N        0.26090000      -1.67470000       2.14870000
H        0.37770000       2.08010000       0.52560000
H       -0.46390000       1.80010000      -1.01040000
H       -1.32740000       1.56690000       0.51800000
H       -0.70800000      -0.64320000      -0.40680000
H        2.21380000      -1.87380000       0.19630000
H        2.88380000      -0.28920000       0.69830000
H        1.60530000      -0.19520000       3.27890000
H       -0.79290000      -0.02630000       4.27500000
H       -1.15290000       0.95940000       2.84460000
H       -1.56830000      -2.03980000       3.20380000
H       -1.82240000      -1.22280000       1.64720000
