18
Properties=species:S:1:pos:R:3 gdb_85647=T pbc="F F F"
C       -0.13290000       1.53640000      -0.02040000
C        0.08690000       0.02650000       0.02780000
C        0.83710000      -0.53360000      -1.20150000
C        1.28170000      -1.94280000      -0.75760000
C        2.41010000      -2.50430000      -1.48170000
N        3.31240000      -2.92430000      -2.06900000
C        1.53520000      -1.79610000       0.77860000
O        2.09110000      -2.60430000       1.46440000
C        0.93390000      -0.46290000       1.21480000
H        0.82380000       2.06920000      -0.06480000
H       -0.71660000       1.82200000      -0.90150000
H       -0.67140000       1.88830000       0.86510000
H       -0.89210000      -0.47000000       0.07870000
H        0.22350000      -0.55140000      -2.10460000
H        1.72080000       0.07950000      -1.41270000
H        0.43600000      -2.64000000      -0.84360000
H        1.77480000       0.22230000       1.39560000
H        0.39830000      -0.56700000       2.16130000
