12
Properties=species:S:1:pos:R:3 gdb_3545=T pbc="F F F"
O        0.01920000       0.05940000       0.01320000
C        0.00110000       1.25380000       0.08060000
C       -1.06050000       2.30520000       0.06870000
C       -0.44790000       3.52050000       0.70700000
C        0.95410000       3.19790000       1.20720000
C        1.04420000       2.36320000      -0.08720000
N       -0.11570000       3.22820000      -0.70970000
H       -2.11450000       2.22940000      -0.16430000
H       -1.07770000       4.36320000       0.97110000
H        1.58920000       4.08580000       1.15860000
H        1.09340000       2.68800000       2.16470000
H        1.96920000       2.20220000      -0.63390000
