15
Properties=species:S:1:pos:R:3 gdb_54494=T pbc="F F F"
C       -0.06800000       1.40920000       0.05320000
C       -0.34320000      -0.07630000       0.02670000
O       -0.74450000      -0.70750000       0.97430000
C       -0.05840000      -0.75670000      -1.28140000
O       -0.72300000      -2.00680000      -1.56930000
C        0.68150000      -2.03840000      -1.55610000
C        1.14660000      -1.58670000      -2.94800000
C        0.41770000      -0.24380000      -2.64430000
O        0.39850000       0.82680000      -3.17330000
H        1.00010000       1.59400000      -0.11430000
H       -0.59600000       1.91010000      -0.76470000
H       -0.36420000       1.82090000       1.01820000
H        1.17930000      -2.65790000      -0.82000000
H        2.22270000      -1.42050000      -3.05370000
H        0.77470000      -2.18940000      -3.77840000
