21
Properties=species:S:1:pos:R:3 gdb_8360=T pbc="F F F"
C       -0.01360000       1.57790000       0.00310000
C       -0.00100000       0.04740000      -0.01970000
C       -1.40780000      -0.56540000       0.02220000
C       -1.40910000      -2.07640000       0.00010000
C       -0.77730000      -3.08280000       0.99870000
N       -1.42180000      -4.02880000      -0.02820000
C       -2.60930000      -3.05300000       0.03150000
C       -0.85630000      -3.05230000      -1.07290000
H        1.00130000       1.98660000      -0.02750000
H       -0.56180000       1.98180000      -0.85540000
H       -0.49820000       1.95610000       0.91010000
H        0.51840000      -0.30230000      -0.92100000
H        0.58170000      -0.32780000       0.83130000
H       -1.93120000      -0.22120000       0.92520000
H       -1.99480000      -0.19540000      -0.83000000
H        0.31300000      -3.16300000       1.03760000
H       -1.21600000      -3.16120000       1.99820000
H       -3.18950000      -3.12830000       0.95630000
H       -3.25830000      -3.10170000      -0.84830000
H       -1.37010000      -3.10170000      -2.03800000
H        0.22770000      -3.13010000      -1.19730000
