12
Properties=species:S:1:pos:R:3 gdb_131111=T pbc="F F F"
O       -0.18150000       1.37520000       0.05590000
C        0.01210000      -0.01790000      -0.02280000
C        0.76350000      -0.40320000      -1.23980000
N        1.34960000      -0.68580000      -2.19390000
C        0.68030000      -0.57260000       1.20550000
C        0.32100000      -1.50420000       2.12580000
N        1.33660000      -1.55020000       3.05360000
N        2.24610000      -0.73930000       2.77050000
O        1.86110000      -0.06510000       1.54550000
H        0.68150000       1.79770000       0.15190000
H       -0.98700000      -0.45910000      -0.09350000
H       -0.55430000      -2.12610000       2.19780000
