14
Properties=species:S:1:pos:R:3 gdb_2525=T pbc="F F F"
C       -0.44660000       1.32090000       0.21290000
N        0.03460000      -0.05700000       0.17110000
C        0.71710000      -0.41110000      -1.05960000
C        1.57450000      -1.65580000      -0.82700000
O        1.78030000      -2.50830000      -1.64520000
C       -0.30230000      -0.69420000      -2.16680000
O       -0.23070000      -0.25390000      -3.28030000
H        0.34330000       2.07160000       0.04060000
H       -1.21520000       1.46860000      -0.55260000
H       -0.90580000       1.51370000       1.18590000
H        0.63350000      -0.24010000       0.96960000
H        1.40310000       0.37250000      -1.43980000
H        2.02150000      -1.70710000       0.19510000
H       -1.13810000      -1.34450000      -1.82930000
