16
Properties=species:S:1:pos:R:3 gdb_126106=T pbc="F F F"
C        0.05720000       1.55180000       0.00920000
C       -0.00860000       0.01340000       0.00330000
C       -1.37340000      -0.49910000       0.01240000
C       -2.51100000      -0.90180000       0.02040000
C       -3.83030000      -1.40390000       0.03000000
C       -5.01730000      -0.72530000       0.04180000
O       -6.04990000      -1.57360000       0.04810000
N       -5.56660000      -2.88130000       0.04020000
C       -4.26560000      -2.76940000       0.02920000
H        1.09850000       1.88630000       0.00180000
H       -0.44430000       1.96590000      -0.86960000
H       -0.42950000       1.95850000       0.89960000
H        0.51790000      -0.37360000      -0.87890000
H        0.53250000      -0.38090000       0.87320000
H       -5.25880000       0.32570000       0.04690000
H       -3.65250000      -3.65890000       0.02130000
