12
Properties=species:S:1:pos:R:3 gdb_131025=T pbc="F F F"
O       -0.05670000      -0.00680000      -0.00060000
C       -0.00770000       1.18470000       0.00800000
N        1.20060000       1.92540000       0.00030000
N        2.40960000       1.32540000      -0.01770000
C        3.28730000       2.31330000      -0.01990000
C        2.66420000       3.58540000      -0.00340000
C        1.31780000       3.30720000       0.00950000
C        0.20250000       4.17710000       0.02840000
N       -0.71140000       4.88840000       0.04400000
H       -0.87800000       1.86080000       0.02280000
H        4.34420000       2.09070000      -0.03330000
H        3.12140000       4.56110000      -0.00100000
