16
Properties=species:S:1:pos:R:3 gdb_128107=T pbc="F F F"
C        0.14160000       1.38830000       0.12390000
N       -0.16740000      -0.00900000      -0.11840000
C        0.52780000      -0.72810000      -1.05570000
C        0.67550000      -2.11460000      -1.17970000
C        1.44560000      -2.26910000      -2.36590000
N        1.75730000      -1.11650000      -2.92720000
N        1.18750000      -0.18320000      -2.10310000
C        0.16220000      -3.07560000      -0.28870000
C       -0.28550000      -3.87170000       0.50020000
H        1.19940000       1.56630000       0.37050000
H       -0.11520000       1.99450000      -0.75300000
H       -0.47300000       1.74640000       0.95160000
H       -0.39230000      -0.55830000       0.69810000
H        1.77570000      -3.19630000      -2.81050000
H        1.27650000       0.78940000      -2.33800000
H       -0.68110000      -4.58650000       1.17750000
