19
Properties=species:S:1:pos:R:3 gdb_71356=T pbc="F F F"
C        0.02190000       1.52730000      -0.06060000
C        0.00990000       0.02110000      -0.01850000
C        0.60160000      -0.92700000      -1.09700000
C        0.02770000      -1.87020000      -0.02620000
C        0.59860000      -0.92400000       1.09540000
C       -0.38620000      -0.96510000       2.25860000
O       -1.26820000       0.17280000       2.33670000
C       -1.67130000      -0.97430000       1.56170000
C       -1.23420000      -0.93720000       0.10150000
H        1.05160000       1.90040000      -0.10930000
H       -0.50150000       1.88920000      -0.95330000
H       -0.46070000       1.94850000       0.82210000
H        0.10510000      -0.92530000      -2.07230000
H        1.68970000      -0.91400000      -1.21300000
H        0.03170000      -2.96170000      -0.01910000
H        1.67170000      -0.91110000       1.29250000
H       -0.17970000      -1.47160000       3.19580000
H       -2.56380000      -1.48870000       1.90300000
H       -1.98490000      -0.93740000      -0.69020000
