19
Properties=species:S:1:pos:R:3 gdb_101885=T pbc="F F F"
O        0.03050000       1.41040000      -0.19580000
C        0.09520000       0.00550000      -0.07760000
C       -1.29300000      -0.58730000       0.14080000
O       -2.07630000      -0.16280000      -0.96780000
C       -1.29240000      -2.10710000       0.23020000
O       -2.65150000      -2.50110000       0.32780000
C       -2.82980000      -3.90550000       0.28090000
C       -4.24870000      -4.22710000       0.34420000
C       -5.41300000      -4.51580000       0.39290000
H       -0.68070000       1.58700000      -0.82380000
H        0.54230000      -0.45470000      -0.97460000
H        0.74190000      -0.21870000       0.77720000
H       -1.70890000      -0.18030000       1.07600000
H       -2.92290000      -0.61920000      -0.89680000
H       -0.83410000      -2.53940000      -0.67390000
H       -0.72090000      -2.45170000       1.10710000
H       -2.39430000      -4.31610000      -0.64550000
H       -2.30010000      -4.38590000       1.12040000
H       -6.44390000      -4.76740000       0.43790000
