17
Properties=species:S:1:pos:R:3 gdb_18246=T pbc="F F F"
O        0.00770000       1.40130000       0.01590000
C       -0.01670000      -0.01370000      -0.00070000
C       -1.43030000      -0.49200000       0.02220000
C       -2.54770000       0.23650000       0.00940000
C       -3.76580000      -0.65620000       0.08030000
N       -3.25510000      -2.04850000       0.08090000
C       -2.54290000      -2.43320000      -1.14070000
C       -1.77740000      -1.94590000       0.04310000
H        0.92600000       1.68480000      -0.00480000
H        0.48930000      -0.41530000      -0.89680000
H        0.51970000      -0.43740000       0.86750000
H       -2.58880000       1.31570000      -0.05480000
H       -4.34330000      -0.48900000       0.99980000
H       -4.45960000      -0.50840000      -0.75760000
H       -2.58890000      -3.49510000      -1.36930000
H       -2.58690000      -1.77070000      -2.00330000
H       -1.20730000      -2.63750000       0.65990000
