17
Properties=species:S:1:pos:R:3 gdb_20757=T pbc="F F F"
C        0.02970000       1.49730000      -0.02020000
C        0.06690000       0.00410000       0.03150000
N        0.15590000      -0.69380000      -1.07440000
O        0.16700000      -2.02960000      -0.67670000
C        0.08350000      -2.09390000       0.66730000
C        0.08270000      -3.45710000       1.26330000
C        0.01620000      -0.83730000       1.19000000
C       -0.08610000      -0.40420000       2.61790000
H        0.86660000       1.93200000       0.53740000
H        0.08580000       1.83850000      -1.05550000
H       -0.89300000       1.88430000       0.42630000
H       -0.76250000      -4.04700000       0.89310000
H        0.99880000      -3.99890000       1.00520000
H        0.01190000      -3.39990000       2.35120000
H        0.76140000       0.22630000       2.91130000
H       -0.99640000       0.17920000       2.79960000
H       -0.10620000      -1.26170000       3.29570000
