19
Properties=species:S:1:pos:R:3 gdb_65018=T pbc="F F F"
C       -0.06550000       1.37590000       0.74270000
C        0.02100000       0.03230000       0.04060000
C        1.27150000      -0.27680000      -0.75550000
C        1.03480000      -0.95500000       0.57160000
C       -1.33690000      -0.47810000      -0.48450000
C       -1.69690000       0.22520000      -1.78530000
O       -2.11990000      -0.34500000      -2.75890000
C       -1.39840000      -1.98690000      -0.69130000
O       -2.04130000      -2.72940000       0.00240000
H        0.92550000       1.70500000       1.06970000
H       -0.47160000       2.15840000       0.09210000
H       -0.70750000       1.31290000       1.62880000
H        1.18130000      -0.87560000      -1.65620000
H        2.03690000       0.48960000      -0.81460000
H        1.63200000      -0.63970000       1.42060000
H        0.79500000      -2.01240000       0.57760000
H       -2.10740000      -0.23110000       0.25880000
H       -1.53260000       1.32460000      -1.79200000
H       -0.79200000      -2.37030000      -1.53850000
