15
Properties=species:S:1:pos:R:3 gdb_43585=T pbc="F F F"
O        0.05170000      -0.00000000       0.03890000
C        0.00390000       1.19880000      -0.03630000
C       -1.26910000       2.05040000      -0.16510000
C       -0.81730000       3.31620000      -0.94550000
C       -1.56700000       4.52580000      -0.61200000
N       -2.15730000       5.48610000      -0.35820000
C        0.68400000       3.43640000      -0.64290000
N        0.96710000       3.31770000       0.78180000
C        1.17710000       2.13610000      -0.10860000
H       -2.06390000       1.49510000      -0.66260000
H       -1.60990000       2.31740000       0.83900000
H       -0.93310000       3.13680000      -2.02090000
H        1.29970000       4.06800000      -1.27350000
H        1.87310000       3.73050000       0.99030000
H        2.17440000       1.75270000      -0.28500000
