15
Properties=species:S:1:pos:R:3 gdb_15099=T pbc="F F F"
N        0.05620000      -3.64590000      -0.32930000
C        0.03870000      -2.49320000      -0.18470000
C        0.01830000      -1.13900000      -0.01490000
C       -0.00340000       0.05990000       0.13440000
C       -0.00280000       1.50420000       0.31810000
C        1.38640000       2.11790000       0.19650000
C        1.93960000       2.47300000      -1.15760000
C        1.52460000       3.56430000      -0.20070000
H       -0.67280000       1.95690000      -0.42480000
H       -0.43530000       1.73660000       1.30050000
H        2.09580000       1.74190000       0.92690000
H        2.99680000       2.31530000      -1.33680000
H        1.31220000       2.29400000      -2.02460000
H        0.61920000       4.11870000      -0.42570000
H        2.29650000       4.15450000       0.27990000
