25
Properties=species:S:1:pos:R:3 gdb_118568=T pbc="F F F"
C       -0.13560000       1.43550000      -0.08810000
C       -0.06120000      -0.08850000       0.04300000
C        0.80540000      -0.58550000       1.21740000
C        0.12490000      -0.36150000       2.58050000
C        1.07880000      -0.35400000       3.77050000
O        0.30440000      -0.12840000       4.94000000
C        1.16030000      -2.06270000       1.02560000
O        1.97270000      -2.19860000      -0.12200000
C        2.30740000      -3.53460000      -0.40410000
H        0.86130000       1.86490000      -0.23880000
H       -0.75270000       1.72370000      -0.94490000
H       -0.56900000       1.90900000       0.79890000
H       -1.07400000      -0.50180000       0.14970000
H        0.35060000      -0.50780000      -0.88010000
H        1.75320000      -0.02810000       1.19600000
H       -0.40360000       0.59720000       2.58280000
H       -0.64020000      -1.13080000       2.74880000
H        1.62510000      -1.30780000       3.83980000
H        1.83090000       0.44010000       3.63150000
H        0.89740000      -0.12400000       5.69680000
H        1.69040000      -2.45940000       1.90730000
H        0.23560000      -2.65750000       0.91290000
H        1.41360000      -4.15010000      -0.59510000
H        2.93350000      -3.53490000      -1.30000000
H        2.87000000      -3.99950000       0.42160000
