15
Properties=species:S:1:pos:R:3 gdb_28374=T pbc="F F F"
C       -0.04890000       1.51410000       0.00320000
C       -0.00340000       0.01540000      -0.04380000
N       -0.03950000      -0.62090000      -1.17780000
C        0.00360000      -1.98100000      -1.20680000
C        0.09090000      -2.70670000      -0.05280000
N        0.20860000      -4.06420000       0.06300000
O        0.12040000      -2.08790000       1.13660000
C        0.07710000      -0.68050000       1.23950000
O        0.10470000      -0.20500000       2.34100000
H        0.84230000       1.91860000       0.49600000
H       -0.11330000       1.90740000      -1.01220000
H       -0.90840000       1.86290000       0.58620000
H       -0.02640000      -2.46870000      -2.17310000
H       -0.07770000      -4.61270000      -0.73220000
H       -0.04240000      -4.44920000       0.96130000
