16
Properties=species:S:1:pos:R:3 gdb_124620=T pbc="F F F"
C       -0.04110000       1.54950000       0.00820000
C       -0.02430000       0.01970000       0.05800000
C        0.73450000      -0.53120000       1.26790000
N       -1.39180000      -0.51060000       0.02410000
N       -2.30070000      -0.26620000       0.98590000
N       -3.37940000      -0.83630000       0.70850000
O       -3.22160000      -1.52240000      -0.51950000
C       -1.94120000      -1.31270000      -0.96040000
O       -1.44850000      -1.73880000      -1.96600000
H        0.98370000       1.92860000      -0.02900000
H       -0.57300000       1.90830000      -0.87690000
H       -0.52740000       1.96080000       0.89750000
H        0.41420000      -0.37500000      -0.86390000
H        0.27500000      -0.19190000       2.20080000
H        0.74380000      -1.62430000       1.26180000
H        1.76900000      -0.17820000       1.24650000
