23
Properties=species:S:1:pos:R:3 gdb_53444=T pbc="F F F"
C       -0.01280000       1.50500000      -0.00560000
C       -0.01000000       0.04860000      -0.00830000
C       -0.00340000      -1.15610000      -0.01950000
C       -0.00890000      -2.61690000      -0.00450000
C        0.84770000      -3.17980000       1.15490000
C        0.83880000      -4.71430000       1.16870000
C       -0.59060000      -5.27110000       1.22640000
C       -1.45020000      -4.71670000       0.08170000
C       -1.44780000      -3.18230000       0.06490000
H        0.55770000       1.90430000       0.84050000
H        0.43280000       1.90750000      -0.92240000
H       -1.03140000       1.90270000       0.06740000
H        0.43850000      -2.97230000      -0.94580000
H        1.87070000      -2.79900000       1.07180000
H        0.44620000      -2.79630000       2.10190000
H        1.33610000      -5.08740000       0.26230000
H        1.42640000      -5.08220000       2.01740000
H       -0.57370000      -6.36630000       1.19330000
H       -1.04710000      -4.99480000       2.18710000
H       -1.06130000      -5.09000000      -0.87620000
H       -2.47860000      -5.08640000       0.16300000
H       -1.92860000      -2.79890000       0.97420000
H       -2.03060000      -2.80320000      -0.78080000
