16
Properties=species:S:1:pos:R:3 gdb_50549=T pbc="F F F"
O       -0.97590000       1.38650000       0.31290000
C        0.13030000       0.93940000       0.14530000
C        1.36130000       1.79990000      -0.05450000
O        2.43160000       1.07400000      -0.67970000
C        2.54860000       2.05810000      -1.73450000
C        1.36170000       2.87610000      -1.17590000
C        0.10990000       2.98190000      -2.05700000
C        0.32670000       3.90190000      -3.17190000
N        0.52700000       4.62990000      -4.04660000
H        0.33990000      -0.15300000       0.12730000
H        1.65230000       2.19690000       0.93060000
H        3.51850000       2.56550000      -1.71130000
H        2.39740000       1.61470000      -2.72560000
H        1.63880000       3.86790000      -0.81710000
H       -0.16540000       2.00180000      -2.46270000
H       -0.74400000       3.32030000      -1.46210000
