17
Properties=species:S:1:pos:R:3 gdb_93118=T pbc="F F F"
C        0.02430000       1.53850000      -0.07930000
C        0.03870000       0.02530000       0.03230000
O        0.60100000      -0.48830000      -1.18440000
C        0.99200000      -1.78730000      -1.16890000
N        1.08300000      -2.58190000      -0.19110000
C        0.79540000      -2.08350000       1.14280000
C        0.81120000      -0.53720000       1.24620000
C        2.17810000      -0.01480000       1.30540000
N        3.25550000       0.39980000       1.36030000
H        1.04230000       1.93090000      -0.14450000
H       -0.52430000       1.83990000      -0.97500000
H       -0.46690000       1.97740000       0.79420000
H       -0.98840000      -0.35650000       0.11070000
H        1.25320000      -2.10710000      -2.17530000
H       -0.19000000      -2.44720000       1.45930000
H        1.52430000      -2.51300000       1.83660000
H        0.29670000      -0.22280000       2.16150000
