13
Properties=species:S:1:pos:R:3 gdb_44451=T pbc="F F F"
O       -0.00500000       0.00480000      -0.27090000
C        0.01400000       1.16720000       0.00430000
O       -1.12660000       1.85470000       0.30610000
C       -0.94760000       3.21870000       0.61020000
C        0.13770000       3.98530000      -0.12050000
O        1.03360000       3.15550000      -0.82110000
C        1.24360000       2.07120000       0.07180000
O        1.29870000       2.63080000       1.37600000
C        0.31400000       3.63640000       1.34070000
H       -1.89200000       3.69690000       0.83840000
H        0.01130000       4.96500000      -0.55920000
H        2.16550000       1.54420000      -0.16530000
H        0.34250000       4.30940000       2.18590000
