19
Properties=species:S:1:pos:R:3 gdb_72995=T pbc="F F F"
C        0.12680000       1.55220000       0.20520000
C        0.05730000       0.05430000       0.11930000
C       -1.25580000      -0.73720000      -0.03050000
C       -0.68970000      -1.83950000       0.91790000
C        0.61610000      -1.04970000       1.01820000
C        1.19220000      -0.83650000      -0.37520000
O        0.94660000      -1.71930000      -1.43570000
C        2.55770000      -0.23990000      -0.41670000
O        3.05280000       0.45240000       0.44190000
H        1.12760000       1.89650000       0.47120000
H       -0.15690000       2.01020000      -0.74990000
H       -0.57110000       1.91830000       0.96640000
H       -2.10000000      -0.20060000       0.40870000
H       -1.51190000      -1.04750000      -1.04490000
H       -1.22080000      -1.88280000       1.87090000
H       -0.61730000      -2.85190000       0.51040000
H        1.27580000      -0.96340000       1.87430000
H        1.32870000      -2.57610000      -1.21650000
H        3.10980000      -0.50930000      -1.34470000
