15
Properties=species:S:1:pos:R:3 gdb_56369=T pbc="F F F"
C       -0.08040000       1.45320000      -0.14480000
C        0.02800000      -0.08140000       0.06790000
C        0.73010000      -0.36810000       1.33250000
N        1.32330000      -0.57410000       2.30130000
C       -1.32290000      -0.66700000       0.12130000
N       -2.38650000      -1.11470000       0.15320000
C        0.84750000      -0.69560000      -1.08700000
C        0.52060000      -1.97120000      -1.72710000
O        0.20790000      -0.71070000      -2.34480000
H        0.92090000       1.88990000      -0.15720000
H       -0.56980000       1.63960000      -1.10240000
H       -0.65940000       1.91380000       0.65700000
H        1.88010000      -0.34520000      -1.08400000
H        1.31440000      -2.53840000      -2.20790000
H       -0.33950000      -2.54290000      -1.38850000
