11
Properties=species:S:1:pos:R:3 gdb_133508=T pbc="F F F"
F        0.02660000       0.03530000      -0.00690000
C       -0.01110000       1.37360000       0.00070000
F        1.24870000       1.81850000      -0.05580000
F       -0.63660000       1.77120000      -1.11240000
C       -0.69420000       1.87040000       1.19690000
C       -1.25380000       2.27670000       2.17610000
C       -1.93830000       2.75210000       3.37520000
C       -1.98990000       4.21650000       3.46290000
N       -2.03910000       5.36640000       3.54730000
H       -2.96390000       2.36280000       3.40020000
H       -1.43720000       2.36460000       4.27110000
