21
Properties=species:S:1:pos:R:3 gdb_81365=T pbc="F F F"
C       -0.15820000       1.55300000       0.01830000
C        0.04060000       0.02820000       0.00970000
C        0.76930000      -0.44970000      -1.23160000
C        1.86590000      -1.20080000      -1.11400000
C        2.34780000      -1.55120000       0.27540000
C        1.11690000      -1.99650000       1.12520000
C        0.79710000      -0.47730000       1.25630000
C        2.32370000      -0.23010000       1.11610000
O        2.92010000      -0.33290000       2.39380000
H        0.80050000       2.08070000       0.04460000
H       -0.69450000       1.88390000      -0.87730000
H       -0.74050000       1.86390000       0.89220000
H       -0.96240000      -0.42700000       0.01720000
H        0.36840000      -0.16710000      -2.20180000
H        2.41320000      -1.55790000      -1.98120000
H        3.25660000      -2.15710000       0.28760000
H        0.37970000      -2.63610000       0.63400000
H        1.41520000      -2.42150000       2.08400000
H        0.33970000      -0.12250000       2.18330000
H        2.65250000       0.67690000       0.59250000
H        3.87280000      -0.39670000       2.27080000
