17
Properties=species:S:1:pos:R:3 gdb_123867=T pbc="F F F"
C       -0.01950000       1.52110000      -0.03910000
C        1.40300000       2.10710000       0.02180000
C        2.09350000       1.80850000       1.36930000
C        1.89190000       0.36850000       1.72480000
N        2.53900000      -0.32370000       2.62010000
O        1.97660000      -1.57410000       2.59330000
N        0.96930000      -1.65160000       1.66620000
C        0.90520000      -0.46880000       1.12180000
C       -0.01260000      -0.02080000       0.02740000
H       -0.61030000       1.91940000       0.79580000
H       -0.51980000       1.84150000      -0.95780000
H        2.00220000       1.68670000      -0.79610000
H        1.37150000       3.18910000      -0.13700000
H        3.15910000       2.05300000       1.33510000
H        1.65470000       2.43600000       2.15550000
H       -1.01990000      -0.41860000       0.18020000
H        0.34260000      -0.42950000      -0.92720000
