19
Properties=species:S:1:pos:R:3 gdb_106012=T pbc="F F F"
O       -0.01190000       1.40310000       0.03580000
C        0.03760000      -0.01840000      -0.00390000
C       -1.36150000      -0.54220000       0.00640000
C       -1.80110000      -2.03940000      -0.02740000
C       -3.03960000      -1.57370000      -0.75930000
C       -3.01250000      -1.61630000       0.77260000
C       -2.47420000      -0.19850000       1.07760000
C       -3.14750000       0.76950000       0.07460000
C       -2.51110000      -0.14060000      -1.00390000
H        0.89040000       1.73520000       0.03150000
H        0.55710000      -0.37340000      -0.91050000
H        0.58830000      -0.42190000       0.86320000
H       -1.25470000      -2.97300000      -0.06310000
H       -3.73870000      -2.15470000      -1.34640000
H       -3.69080000      -2.22970000       1.35100000
H       -2.25170000       0.07310000       2.10910000
H       -4.23810000       0.86190000       0.09650000
H       -2.67520000       1.75430000       0.09360000
H       -2.32500000       0.18810000      -2.02590000
