19
Properties=species:S:1:pos:R:3 gdb_10171=T pbc="F F F"
C       -0.21600000       1.49690000      -0.02610000
C       -0.07420000      -0.01360000      -0.01870000
O       -1.39550000      -0.57350000      -0.05250000
C       -1.50090000      -1.92520000      -0.04280000
C       -2.97480000      -2.30800000      -0.10890000
O       -3.82960000      -1.35580000       0.47920000
N       -0.46900000      -2.65390000      -0.03210000
C       -0.55880000      -4.09900000      -0.04500000
H        0.77390000       1.96220000      -0.00530000
H       -0.73630000       1.83740000      -0.92610000
H       -0.77590000       1.84290000       0.84770000
H        0.48850000      -0.37980000      -0.88360000
H        0.44130000      -0.37540000       0.87670000
H       -3.22450000      -2.47820000      -1.17120000
H       -3.13490000      -3.25700000       0.40960000
H       -3.43890000      -0.49290000       0.29970000
H        0.19830000      -4.50860000       0.63180000
H       -1.53310000      -4.51440000       0.24710000
H       -0.32380000      -4.47690000      -1.04810000
