18
Properties=species:S:1:pos:R:3 gdb_74010=T pbc="F F F"
C       -0.09640000       1.42370000      -0.12610000
C       -0.03700000      -0.04540000       0.12160000
C       -1.00130000      -0.92390000       0.44330000
C       -2.40720000      -1.20430000      -0.05010000
C       -1.75880000      -2.43830000      -0.77550000
C       -0.50710000      -2.32440000       0.17690000
C        0.95210000      -2.13750000      -0.24690000
O        1.80530000      -2.95300000      -0.50900000
N        1.15330000      -0.76050000      -0.14200000
H        0.56070000       1.97470000       0.55860000
H        0.21920000       1.67150000      -1.14700000
H       -1.11390000       1.79100000       0.02440000
H       -3.10460000      -1.51550000       0.73430000
H       -2.89050000      -0.44910000      -0.67480000
H       -2.30100000      -3.38520000      -0.72980000
H       -1.50550000      -2.20960000      -1.81230000
H       -0.55810000      -3.05250000       0.99120000
H        2.06280000      -0.34900000      -0.27890000
