23
Properties=species:S:1:pos:R:3 gdb_94940=T pbc="F F F"
C        0.09760000       1.57390000      -0.01700000
C        0.01080000       0.04670000       0.01770000
C        0.74590000      -0.63170000      -1.16330000
O        1.25860000      -1.87350000      -0.67590000
C        1.53270000      -1.72400000       0.69480000
C        0.72030000      -0.57270000       1.22760000
C        0.40170000      -2.00430000       1.65940000
C       -0.84570000      -2.71300000       1.17510000
C        0.81280000      -2.35270000       3.07890000
H        1.13990000       1.90900000       0.03190000
H       -0.33890000       1.97460000      -0.93810000
H       -0.43990000       2.01980000       0.82560000
H       -1.04630000      -0.24240000       0.00230000
H        0.09920000      -0.85020000      -2.01870000
H        1.57360000       0.00850000      -1.51010000
H        2.56560000      -1.91910000       0.97270000
H        1.12250000       0.10210000       1.97670000
H       -0.98100000      -2.60830000       0.09730000
H       -0.77590000      -3.78530000       1.39060000
H       -1.74240000      -2.33350000       1.67910000
H        0.04090000      -2.05420000       3.79830000
H        0.97030000      -3.43210000       3.18700000
H        1.74240000      -1.84950000       3.36480000
