16
Properties=species:S:1:pos:R:3 gdb_110436=T pbc="F F F"
O       -0.20690000       1.43900000       0.19250000
C       -0.07690000       0.05920000      -0.10970000
C       -1.44020000      -0.57860000       0.08780000
C       -1.38970000      -2.11270000       0.13840000
C       -1.28880000      -2.13180000       1.60230000
C       -1.88230000      -0.66800000       1.58380000
C       -3.20190000      -1.41160000       1.44950000
O       -4.33470000      -1.24580000       1.76900000
N       -2.56620000      -2.62900000       0.93240000
H        0.64280000       1.86450000       0.04480000
H        0.24990000      -0.09630000      -1.15060000
H        0.66200000      -0.42990000       0.54550000
H       -2.16620000      -0.11760000      -0.59100000
H       -0.99500000      -2.80290000      -0.59690000
H       -0.77390000      -2.73020000       2.33850000
H       -1.72370000       0.15580000       2.27220000
