21
Properties=species:S:1:pos:R:3 gdb_81010=T pbc="F F F"
C       -0.19020000       1.53510000       0.00190000
C        0.06240000       0.02890000       0.03080000
C        1.01070000      -0.53390000      -1.08230000
C        2.03610000      -1.24020000      -0.17470000
C        3.08490000      -2.13970000      -0.75770000
O        1.15400000      -1.88060000       0.83330000
C        0.86730000      -0.49720000       1.23470000
C        2.34600000      -0.17040000       0.91760000
O        3.26390000      -0.58280000       1.89260000
H        0.74250000       2.10840000       0.01960000
H       -0.73440000       1.82120000      -0.90390000
H       -0.79130000       1.85190000       0.86150000
H       -0.89610000      -0.49820000       0.00670000
H        0.51280000      -1.23950000      -1.75160000
H        1.46910000       0.25400000      -1.68910000
H        3.64210000      -1.61420000      -1.54010000
H        3.79430000      -2.45740000       0.01150000
H        2.62570000      -3.02810000      -1.20280000
H        0.45130000      -0.40410000       2.23900000
H        2.62850000       0.83820000       0.60780000
H        2.96890000      -1.45860000       2.17660000
