19
Properties=species:S:1:pos:R:3 gdb_91744=T pbc="F F F"
O        0.07010000       1.36860000      -0.25120000
C        0.00420000      -0.02470000      -0.01240000
C        0.58640000      -0.49910000       1.35620000
C       -0.61590000      -1.26000000       1.95180000
O       -1.30380000      -1.75290000       0.77950000
C       -1.46480000      -0.47860000       0.13310000
C       -2.16620000       0.38790000       1.20140000
C       -1.67180000      -0.29010000       2.51660000
O       -2.69860000      -0.99330000       3.19020000
H        0.99130000       1.60920000      -0.38570000
H        0.46830000      -0.57940000      -0.83760000
H        1.44850000      -1.15760000       1.23090000
H        0.88800000       0.35760000       1.96610000
H       -0.38150000      -2.08940000       2.61860000
H       -2.00010000      -0.60650000      -0.80690000
H       -1.88480000       1.43840000       1.12260000
H       -3.25390000       0.31000000       1.14170000
H       -1.26190000       0.41770000       3.24090000
H       -3.00210000      -1.67380000       2.57640000
