11
Properties=species:S:1:pos:R:3 gdb_21908=T pbc="F F F"
O       -0.09060000       1.35170000       0.01070000
C        0.00310000       0.00920000       0.00290000
N        1.17840000      -0.52070000      -0.00730000
O        1.24500000      -1.91090000      -0.01520000
C        0.13330000      -2.73810000      -0.01240000
O        0.31100000      -3.92650000      -0.02110000
C       -1.16450000      -2.06430000      -0.00130000
C       -1.23660000      -0.72520000       0.00640000
H        0.81070000       1.70640000       0.00710000
H       -2.03530000      -2.70790000       0.00030000
H       -2.17060000      -0.17530000       0.01500000
