19
Properties=species:S:1:pos:R:3 gdb_22171=T pbc="F F F"
C       -0.05670000       1.57290000       0.09150000
C        0.02150000       0.04370000       0.03000000
C       -1.37510000      -0.58640000      -0.08240000
N        0.88190000      -0.39000000      -1.10100000
C        1.82050000      -1.28360000      -0.62910000
C        1.84620000      -1.37850000       0.72060000
C        0.77950000      -0.54300000       1.23050000
N        0.40990000      -0.24850000       2.42160000
O        1.23890000      -0.88180000       3.37550000
H        0.94640000       2.00510000       0.11960000
H       -0.58160000       1.97190000      -0.78300000
H       -0.58930000       1.87710000       0.99620000
H       -1.90340000      -0.21440000      -0.96810000
H       -1.30540000      -1.67640000      -0.14520000
H       -1.96260000      -0.33400000       0.80430000
H        0.42030000      -0.59890000      -1.97480000
H        2.46420000      -1.79040000      -1.33810000
H        2.54580000      -1.93460000       1.32090000
H        0.86110000      -0.57070000       4.20420000
