18
Properties=species:S:1:pos:R:3 gdb_124785=T pbc="F F F"
C        0.04680000       1.43700000      -0.20630000
C        0.02800000      -0.03640000       0.23210000
O        0.51270000      -0.16930000       1.55040000
C       -1.35760000      -0.62260000       0.15230000
N       -2.11730000      -0.80690000       1.22130000
C       -3.26460000      -1.31640000       0.69960000
N       -3.26370000      -1.45890000      -0.61300000
N       -2.02450000      -1.01050000      -0.95480000
C       -1.62400000      -0.98290000      -2.34650000
H        1.05680000       1.83460000      -0.07930000
H       -0.24450000       1.55290000      -1.25590000
H       -0.63930000       2.02100000       0.41370000
H        0.69820000      -0.60710000      -0.42830000
H       -0.26160000      -0.32180000       2.11200000
H       -4.11710000      -1.59440000       1.30090000
H       -2.00750000      -0.08940000      -2.84840000
H       -0.53470000      -0.99200000      -2.41250000
H       -2.02560000      -1.86840000      -2.84040000
