24
Properties=species:S:1:pos:R:3 gdb_57451=T pbc="F F F"
C       -0.33330000       1.53920000       0.33800000
C        0.01280000       0.04780000       0.16960000
C        0.87040000      -0.40260000       1.36830000
C       -1.30030000      -0.76070000       0.13890000
C        0.78410000      -0.29960000      -1.11860000
C        0.30230000       0.06340000      -2.55440000
C        1.73130000       0.54890000      -2.79540000
C        2.05980000       1.64850000      -1.87690000
N        2.16950000       0.26330000      -1.36610000
H        0.55900000       2.15080000       0.49460000
H       -0.87980000       1.93730000      -0.52350000
H       -0.97420000       1.67150000       1.21680000
H        0.36310000      -0.18320000       2.31400000
H        1.06420000      -1.48020000       1.33350000
H        1.83730000       0.10900000       1.36960000
H       -1.94050000      -0.45440000      -0.69580000
H       -1.10550000      -1.83390000       0.03730000
H       -1.86660000      -0.61070000       1.06410000
H        0.94370000      -1.38330000      -1.08550000
H        0.00440000      -0.80690000      -3.14120000
H       -0.46930000       0.83240000      -2.65860000
H        2.35510000       0.27690000      -3.64050000
H        3.03560000       2.11520000      -1.97200000
H        1.27610000       2.31400000      -1.53260000
