18
Properties=species:S:1:pos:R:3 gdb_62742=T pbc="F F F"
C        0.04870000       1.55370000       0.00150000
C        0.08990000       0.04040000       0.04310000
N       -1.14130000      -0.55060000      -0.42840000
C        1.36650000      -0.75900000      -0.20170000
N        2.55890000      -0.15610000       0.40880000
C        1.95030000      -0.12210000       1.69970000
N        2.32750000       0.20410000       2.85920000
C        0.69130000      -0.76020000       1.19120000
O       -0.08470000      -1.67710000       1.85540000
H        0.97990000       2.00920000       0.34660000
H       -0.13630000       1.89520000      -1.02370000
H       -0.76810000       1.92010000       0.62860000
H       -1.17550000      -0.55230000      -1.44300000
H       -1.24560000      -1.50320000      -0.09800000
H        1.45250000      -1.55550000      -0.93100000
H        2.93670000       0.70530000       0.02540000
H        3.27640000       0.58390000       2.84930000
H        0.49790000      -2.25190000       2.36510000
