19
Properties=species:S:1:pos:R:3 gdb_88377=T pbc="F F F"
C       -1.14740000       1.42340000       0.42550000
C       -0.44470000       0.09350000       0.29440000
N        0.91880000       0.05930000      -0.26730000
C        0.69780000      -0.43300000       1.09720000
C        1.53220000       0.21740000       2.20010000
C        1.14580000      -0.33540000       3.57690000
O        2.89390000      -0.13620000       1.98450000
C        1.44030000       1.69760000       2.23560000
N        1.42400000       2.85040000       2.31180000
H       -0.45830000       2.23530000       0.65030000
H       -1.65570000       1.65780000      -0.51590000
H       -1.90850000       1.38060000       1.21200000
H       -1.10840000      -0.70330000      -0.04450000
H        1.03450000      -0.70880000      -0.92160000
H        0.70600000      -1.51330000       1.24020000
H        1.26710000      -1.42160000       3.57090000
H        1.79740000       0.08530000       4.34500000
H        0.10800000      -0.08910000       3.81330000
H        3.10590000       0.13340000       1.08080000
