20
Properties=species:S:1:pos:R:3 gdb_110511=T pbc="F F F"
C        0.09290000       1.59210000       0.08770000
C       -0.11690000       0.07410000       0.03580000
C        0.59060000      -0.55990000      -1.15170000
N        2.09790000      -0.60540000      -1.13050000
C        2.44780000      -1.93720000      -0.50810000
C        1.17520000      -2.69670000      -0.13630000
C        0.57590000      -2.07150000      -1.42350000
O       -0.52180000      -2.60160000      -2.07000000
C        2.07850000      -1.85260000      -1.93760000
H        1.15910000       1.83290000       0.13420000
H       -0.31920000       2.07810000      -0.80340000
H       -0.39520000       2.03040000       0.96340000
H        0.23860000      -0.37340000       0.97010000
H       -1.18740000      -0.15770000      -0.03760000
H        0.31690000      -0.03210000      -2.07320000
H        3.42810000      -2.00910000      -0.05670000
H        1.33330000      -3.77360000      -0.26110000
H        0.67740000      -2.50610000       0.81890000
H       -0.45960000      -3.56250000      -2.06150000
H        2.61490000      -1.99290000      -2.86710000
