23
Properties=species:S:1:pos:R:3 gdb_59043=T pbc="F F F"
C        0.38360000      -0.94420000       1.32490000
C        0.05450000      -0.14120000       0.06080000
C        0.31870000       1.36250000       0.28720000
C        0.78220000      -0.64430000      -1.15860000
C        1.73270000      -1.57290000      -1.24400000
C        2.18820000      -1.73310000      -2.66370000
O        1.36720000      -0.84890000      -3.41840000
C        0.50560000      -0.10490000      -2.55150000
C       -0.94220000      -0.25450000      -3.02230000
H        0.17030000      -2.00860000       1.18870000
H        1.44120000      -0.84210000       1.59220000
H       -0.20870000      -0.58490000       2.17200000
H       -1.02300000      -0.25160000      -0.13220000
H        1.38230000       1.54260000       0.47730000
H        0.02660000       1.96500000      -0.57770000
H       -0.24660000       1.72410000       1.15220000
H        2.15060000      -2.14860000      -0.42830000
H        3.25130000      -1.46890000      -2.79300000
H        2.06770000      -2.76170000      -3.03880000
H        0.78240000       0.96140000      -2.61670000
H       -1.27360000      -1.29280000      -2.92400000
H       -1.61350000       0.38620000      -2.44100000
H       -1.02010000       0.03620000      -4.07360000
