23
Properties=species:S:1:pos:R:3 gdb_56569=T pbc="F F F"
C       -0.06750000       1.53080000       0.07800000
C       -0.03150000      -0.00750000      -0.05520000
C       -1.40400000      -0.51410000      -0.11590000
C       -2.55290000      -0.86800000      -0.15320000
C        0.82840000      -0.50230000      -1.25720000
C        2.25140000       0.07700000      -1.21100000
C        0.88820000      -2.02040000      -1.31200000
C       -0.14880000      -2.83020000      -2.04330000
C        1.24730000      -2.71890000      -2.60170000
H        0.92380000       1.93410000       0.29690000
H       -0.43380000       1.98940000      -0.84610000
H       -0.74080000       1.82430000       0.88710000
H        0.43300000      -0.41150000       0.85690000
H       -3.55960000      -1.20360000      -0.18570000
H        0.33930000      -0.14940000      -2.17600000
H        2.26410000       1.16440000      -1.31880000
H        2.74730000      -0.17320000      -0.26500000
H        2.85400000      -0.34570000      -2.01990000
H        1.29170000      -2.47290000      -0.40770000
H       -0.46290000      -3.77440000      -1.61250000
H       -0.94200000      -2.28920000      -2.54590000
H        1.38970000      -2.10410000      -3.48520000
H        1.89700000      -3.58630000      -2.55880000
