21
Properties=species:S:1:pos:R:3 gdb_96475=T pbc="F F F"
C        0.31510000       1.47070000       0.02540000
C       -0.03070000       0.00300000      -0.00950000
C       -0.05100000      -0.66600000      -1.16720000
C       -0.27750000      -2.13690000      -1.42570000
C       -1.32090000      -2.84260000      -0.56240000
O       -1.00880000      -2.86210000       0.82090000
C       -1.32180000      -1.66370000       1.50850000
C       -0.22440000      -0.60830000       1.37700000
O        1.00870000      -1.13360000       1.86950000
H        1.19220000       1.63710000       0.66350000
H        0.53360000       1.86660000      -0.96960000
H       -0.50250000       2.06310000       0.45690000
H        0.19070000      -0.09390000      -2.06210000
H       -0.58080000      -2.26800000      -2.47220000
H        0.67700000      -2.67650000      -1.32880000
H       -2.30840000      -2.37960000      -0.71380000
H       -1.39220000      -3.89230000      -0.86730000
H       -2.29010000      -1.26110000       1.17500000
H       -1.40180000      -1.93850000       2.56550000
H       -0.48430000       0.20350000       2.06810000
H        1.10660000      -1.99830000       1.45110000
