20
Properties=species:S:1:pos:R:3 gdb_81287=T pbc="F F F"
C       -0.16860000       1.47560000      -0.00390000
C        0.02490000      -0.03660000      -0.01950000
C        1.23550000      -0.57700000      -0.85310000
C        2.10600000      -0.42960000       0.41810000
C        0.78610000      -0.61440000       1.22900000
C        0.48100000      -2.09310000       1.29140000
O        0.04470000      -2.66380000       2.26140000
C        0.81090000      -2.84800000      -0.01170000
N        1.10000000      -1.99570000      -1.18240000
H        0.75810000       2.01160000       0.22380000
H       -0.52290000       1.82750000      -0.97930000
H       -0.91160000       1.76750000       0.74570000
H       -0.93080000      -0.52320000      -0.24870000
H        1.52250000      -0.02600000      -1.75310000
H        2.91080000      -1.15420000       0.56240000
H        2.50910000       0.57710000       0.53010000
H        0.65990000      -0.13970000       2.20320000
H        1.68030000      -3.48000000       0.22160000
H       -0.01070000      -3.53930000      -0.21870000
H        0.35640000      -2.10080000      -1.86350000
