21
Properties=species:S:1:pos:R:3 gdb_92330=T pbc="F F F"
C       -0.84520000       1.29290000      -0.09420000
C       -0.04620000      -0.00420000      -0.07000000
C        1.26410000      -0.07150000      -0.91040000
C        2.01110000      -0.69540000       0.30020000
O        3.08520000       0.06920000       0.83360000
C        2.51450000       1.13070000       1.57840000
C        1.25790000       0.53050000       2.24490000
O        0.27520000       1.48120000       2.61210000
C        0.75290000      -0.47620000       1.19770000
H       -0.22790000       2.15870000       0.15590000
H       -1.26380000       1.44860000      -1.09570000
H       -1.67160000       1.26890000       0.62160000
H       -0.71210000      -0.82400000      -0.36000000
H        1.22870000      -0.68130000      -1.81640000
H        1.66740000       0.91100000      -1.17410000
H        2.37430000      -1.71480000       0.15770000
H        3.26720000       1.48460000       2.28970000
H        2.21630000       1.97700000       0.93900000
H        1.57710000      -0.04650000       3.12600000
H        0.61460000       1.99080000       3.35420000
H        0.32690000      -1.35620000       1.68180000
