13
Properties=species:S:1:pos:R:3 gdb_132986=T pbc="F F F"
C       -0.01630000       1.44630000      -0.00430000
N        0.00100000      -0.01260000      -0.03180000
C       -0.10070000      -0.71680000      -1.16710000
N       -0.08910000      -2.02000000      -1.23070000
C        0.03810000      -2.60300000      -0.01490000
F        0.05090000      -3.91510000      -0.06840000
N        0.14550000      -2.06720000       1.15450000
C        0.13440000      -0.69390000       1.23280000
O        0.22430000      -0.03590000       2.23960000
H        0.90910000       1.81690000       0.44050000
H       -0.12050000       1.82190000      -1.02350000
H       -0.84860000       1.79280000       0.61130000
H       -0.19880000      -0.14500000      -2.08720000
