20
Properties=species:S:1:pos:R:3 gdb_64779=T pbc="F F F"
O       -0.14390000       1.28260000       0.20980000
C        0.04130000      -0.11800000       0.02270000
C        0.82350000      -0.36300000      -1.29190000
C        2.12420000       0.30240000      -1.26860000
N        3.13610000       0.85750000      -1.19940000
C        0.68880000      -0.75080000       1.27040000
C       -0.47160000      -0.78840000       2.27430000
C       -1.67200000      -1.24730000       1.41840000
C       -1.37680000      -0.73500000      -0.01920000
H        0.72140000       1.68490000       0.35500000
H        0.96980000      -1.43490000      -1.46110000
H        0.24450000       0.03300000      -2.13300000
H        1.02380000      -1.76980000       1.03700000
H        1.56300000      -0.18920000       1.61400000
H       -0.28030000      -1.44370000       3.12770000
H       -0.64650000       0.22070000       2.65890000
H       -1.73680000      -2.34030000       1.41980000
H       -2.62360000      -0.87400000       1.80410000
H       -2.07790000       0.03570000      -0.34680000
H       -1.42310000      -1.55080000      -0.74660000
