18
Properties=species:S:1:pos:R:3 gdb_15931=T pbc="F F F"
O       -0.26370000       0.09550000      -0.11900000
C       -0.02080000       1.24800000       0.14740000
C        1.31540000       1.89810000       0.02640000
C        1.64430000       3.06890000       0.99010000
C        2.04970000       3.97740000      -0.20580000
C        1.62300000       2.87110000      -1.20670000
C        2.74800000       1.91060000      -1.65900000
C        2.50810000       1.01140000      -0.40980000
H       -0.83350000       1.93550000       0.48500000
H        0.75530000       3.43510000       1.51390000
H        2.41370000       2.85280000       1.73610000
H        1.47000000       4.90030000      -0.27900000
H        3.11020000       4.24020000      -0.25760000
H        0.86110000       3.13900000      -1.93980000
H        2.52200000       1.39990000      -2.59800000
H        3.73740000       2.36850000      -1.74810000
H        3.32830000       0.97160000       0.31160000
H        2.19380000      -0.00680000      -0.64430000
