20
Properties=species:S:1:pos:R:3 gdb_101918=T pbc="F F F"
C       -0.16100000       1.42530000      -0.23420000
C        0.17960000      -0.06470000      -0.13850000
C        0.81610000      -0.47540000       1.20290000
C        0.62020000      -1.96680000       1.46360000
C        1.62150000      -3.01890000       1.15680000
N        1.40040000      -2.58570000       2.55130000
H        2.47910000      -1.22370000       2.76790000
H        0.85760000      -3.25710000       3.08330000
C        2.28120000       0.00170000       1.31220000
O        2.97330000      -0.46890000       2.35720000
O        2.77260000       0.78080000       0.53610000
H        0.74080000       2.03150000      -0.13780000
H       -0.62870000       1.65300000      -1.19710000
H       -0.86480000       1.72020000       0.55310000
H       -0.73560000      -0.65390000      -0.28010000
H        0.86130000      -0.34130000      -0.94940000
H        0.28360000       0.04590000       2.01410000
H       -0.42150000      -2.27290000       1.39370000
H        1.26550000      -4.00250000       0.86700000
H        2.59160000      -2.74530000       0.75380000
