21
Properties=species:S:1:pos:R:3 gdb_68289=T pbc="F F F"
C       -0.06280000       1.47480000       0.01310000
C        0.02560000      -0.02750000      -0.00020000
C        0.69510000      -0.93900000      -1.07880000
C        0.11920000      -1.91880000      -0.01710000
C        0.68190000      -0.95890000       1.06950000
C       -1.15530000      -1.04440000      -0.01680000
C       -2.29150000      -1.10290000       1.01810000
O       -3.28220000      -1.11770000      -0.03060000
C       -2.27870000      -1.08360000      -1.06660000
H        0.93470000       1.92710000       0.02310000
H       -0.59000000       1.84840000      -0.87190000
H       -0.60030000       1.83210000       0.89870000
H        0.23480000      -0.95200000      -2.07100000
H        1.78540000      -0.88420000      -1.15000000
H        0.16640000      -3.00850000      -0.02680000
H        1.77120000      -0.90550000       1.15520000
H        0.20940000      -0.99010000       2.05560000
H       -2.33430000      -2.00980000       1.63650000
H       -2.39960000      -0.22560000       1.67080000
H       -2.37880000      -0.19440000      -1.70420000
H       -2.31380000      -1.97890000      -1.70210000
