14
Properties=species:S:1:pos:R:3 gdb_6310=T pbc="F F F"
C       -0.00500000       1.58930000       0.02250000
C        0.00730000       0.06170000      -0.04240000
O        0.67090000      -0.39010000      -1.23240000
C       -0.15870000      -0.68160000      -2.28120000
N        0.58510000      -1.06460000      -3.35070000
O       -1.36200000      -0.58010000      -2.25090000
C        0.72260000      -0.53280000       1.09530000
N        1.26630000      -0.97720000       2.01200000
H        1.01250000       1.98350000      -0.02810000
H       -0.58760000       1.97350000      -0.81760000
H       -0.46790000       1.92310000       0.95490000
H       -1.01850000      -0.31850000      -0.05720000
H        1.55680000      -1.29070000      -3.22550000
H        0.09110000      -1.45570000      -4.13350000
