15
Properties=species:S:1:pos:R:3 gdb_131165=T pbc="F F F"
O       -0.37050000       0.06640000       0.04150000
C       -0.13550000       1.29110000       0.00640000
C       -1.11750000       2.31780000      -0.07120000
N       -2.42780000       1.95550000       0.00030000
C       -3.54980000       2.62490000       0.08180000
N       -4.78710000       2.02410000       0.00730000
H       -4.81590000       1.02710000       0.17520000
H       -5.52820000       2.51290000       0.48820000
N       -0.52280000       3.56010000       0.05080000
N        0.84710000       3.39000000       0.03060000
C        1.08620000       2.10050000       0.05940000
H       -2.43190000       0.92240000      -0.01440000
H       -3.51650000       3.70470000       0.12360000
H       -0.82790000       4.38330000      -0.44930000
H        2.10510000       1.74270000       0.11370000
