18
Properties=species:S:1:pos:R:3 gdb_104809=T pbc="F F F"
C        0.46970000       0.08800000      -1.17330000
O       -0.11410000      -0.04550000       0.11550000
C        0.63620000      -0.70680000       1.09410000
C       -0.13860000      -0.50750000       2.39580000
O       -0.44300000       0.84060000       2.64410000
C        0.98800000      -2.18590000       0.78000000
N        2.44240000      -2.22390000       0.58430000
C        2.84260000      -1.05160000       0.85340000
O        1.95010000      -0.09220000       1.20450000
H        0.72160000      -0.88490000      -1.61330000
H       -0.28060000       0.57480000      -1.79880000
H        1.37060000       0.70890000      -1.13710000
H       -1.04380000      -1.13550000       2.33780000
H        0.47250000      -0.87070000       3.22710000
H       -0.77490000       1.19530000       1.81040000
H        0.70810000      -2.84260000       1.61180000
H        0.45900000      -2.54620000      -0.10730000
H        3.87380000      -0.71650000       0.83010000
