15
Properties=species:S:1:pos:R:3 gdb_128676=T pbc="F F F"
C       -0.00770000       1.41270000       0.00800000
O       -0.02340000      -0.01400000       0.00340000
C       -1.23350000      -0.60470000       0.01080000
N       -2.31680000       0.10740000       0.02150000
N       -3.48050000      -0.58460000       0.02810000
C       -3.67480000      -1.96150000       0.02510000
O       -4.79430000      -2.44560000       0.03210000
C       -2.41050000      -2.69660000       0.01300000
C       -1.23080000      -2.04160000       0.00610000
H        1.04520000       1.69530000       0.00070000
H       -0.51640000       1.81140000      -0.87510000
H       -0.50260000       1.80570000       0.90140000
H       -4.31290000      -0.01150000       0.03640000
H       -2.48020000      -3.77770000       0.01000000
H       -0.27610000      -2.55580000      -0.00290000
