21
Properties=species:S:1:pos:R:3 gdb_100840=T pbc="F F F"
C        0.09300000       1.34880000       0.10110000
O       -0.07780000      -0.03780000      -0.09080000
C        0.60850000      -0.57670000      -1.21110000
C        2.10320000      -0.75410000      -0.94260000
C       -0.10070000      -1.90920000      -1.50610000
C       -1.57470000      -1.74430000      -1.84860000
O        0.58150000      -2.51540000      -2.62210000
C        0.87180000      -3.82700000      -2.55800000
O        1.39910000      -4.41840000      -3.45170000
H        1.12800000       1.61550000       0.35700000
H       -0.20070000       1.92010000      -0.79290000
H       -0.55400000       1.63780000       0.93280000
H        0.46840000       0.08330000      -2.08380000
H        2.26000000      -1.40900000      -0.07890000
H        2.59960000      -1.18990000      -1.81210000
H        2.57960000       0.20680000      -0.73140000
H        0.01270000      -2.55310000      -0.62280000
H       -2.04710000      -2.71900000      -2.00140000
H       -2.08580000      -1.22520000      -1.03600000
H       -1.68740000      -1.16210000      -2.76840000
H        0.57610000      -4.28520000      -1.59350000
