18
Properties=species:S:1:pos:R:3 gdb_16706=T pbc="F F F"
C       -0.08370000       1.52530000       0.01790000
C        0.05530000       0.00440000       0.04630000
C        0.99660000      -0.58260000      -1.07540000
C        2.02940000      -1.33330000      -0.20620000
C        1.10460000      -2.01670000       0.85740000
C        0.78100000      -0.55020000       1.29910000
C        2.25230000      -0.30010000       0.91590000
O        3.18180000       0.29390000       1.37570000
H        0.89310000       2.01530000       0.09650000
H       -0.55060000       1.85700000      -0.91540000
H       -0.70330000       1.88330000       0.84700000
H       -0.93970000      -0.44810000      -0.02270000
H        0.46810000      -1.25890000      -1.75290000
H        1.45750000       0.20580000      -1.67790000
H        2.85170000      -1.84910000      -0.69760000
H        0.26580000      -2.59760000       0.46570000
H        1.65360000      -2.58670000       1.60880000
H        0.37910000      -0.29970000       2.27910000
