15
Properties=species:S:1:pos:R:3 gdb_49862=T pbc="F F F"
O        0.11380000      -0.06140000      -0.22050000
C        0.07090000       1.10940000       0.03870000
C        1.27720000       2.03520000       0.07080000
O        2.48940000       1.29480000       0.14940000
C        3.42470000       1.73620000      -0.75820000
O        4.56330000       1.38140000      -0.71650000
C        2.76410000       2.67810000      -1.71450000
C        1.58550000       2.09190000      -2.46920000
C        1.35550000       2.87530000      -1.21240000
H       -0.88900000       1.63790000       0.24070000
H        1.19820000       2.68890000       0.95050000
H        3.36930000       3.45540000      -2.15970000
H        1.33550000       2.57100000      -3.40840000
H        1.44050000       1.01680000      -2.44940000
H        0.86070000       3.83720000      -1.23710000
