19
Properties=species:S:1:pos:R:3 gdb_62545=T pbc="F F F"
C       -0.34310000       1.42390000      -0.17480000
C        0.03220000      -0.04220000       0.02320000
C       -1.19220000      -0.88380000       0.41500000
C        0.95330000      -0.67250000      -1.11400000
C        1.96160000      -1.16270000      -0.02930000
C        1.21280000      -0.29240000       0.98780000
O        1.47080000       0.12240000       2.07920000
C        0.34810000      -1.73090000      -1.99330000
O        0.12220000      -1.59870000      -3.16900000
H        0.52870000       2.03050000      -0.43750000
H       -1.08480000       1.52860000      -0.97370000
H       -0.77080000       1.83160000       0.74640000
H       -1.95210000      -0.85500000      -0.37290000
H       -0.94050000      -1.93180000       0.60500000
H       -1.63450000      -0.47950000       1.33030000
H        1.36360000       0.11320000      -1.75090000
H        1.85570000      -2.23080000       0.19680000
H        3.02090000      -0.94520000      -0.18010000
H        0.11130000      -2.68820000      -1.47180000
