15
Properties=species:S:1:pos:R:3 gdb_125010=T pbc="F F F"
C        0.02880000       1.52660000      -0.06370000
C       -0.00480000       0.02710000      -0.06440000
C       -1.14840000      -0.71700000       0.04260000
N       -2.38780000      -0.21940000       0.16140000
C       -1.07500000      -2.20060000       0.03210000
N       -2.17250000      -2.84940000       0.13540000
O        0.12980000      -2.74750000      -0.08450000
N        1.41860000      -1.81940000      -0.20510000
N        1.19850000      -0.63090000      -0.18090000
H        1.05900000       1.87240000      -0.16150000
H       -0.54980000       1.94780000      -0.89610000
H       -0.38110000       1.94330000       0.86540000
H       -2.57180000       0.76700000       0.18500000
H       -3.13540000      -0.89560000       0.23320000
H       -2.00530000      -3.85470000       0.11700000
