19
Properties=species:S:1:pos:R:3 gdb_50343=T pbc="F F F"
O        0.12890000      -0.16280000       0.17860000
C        0.07590000       1.03950000       0.11290000
C        1.28320000       1.94480000       0.05910000
C        1.25520000       2.94060000      -1.15580000
C        1.36960000       4.32830000      -0.47910000
C        0.06040000       4.58220000       0.28180000
O        0.09810000       3.62300000       1.36000000
C        1.35570000       2.94130000       1.25120000
C        2.30060000       4.02210000       0.71270000
H       -0.89990000       1.57140000       0.08270000
H        2.17060000       1.30630000       0.04370000
H        2.09470000       2.74760000      -1.82800000
H        0.33700000       2.85130000      -1.74640000
H        1.66240000       5.13960000      -1.14640000
H        0.00400000       5.59600000       0.69880000
H       -0.83160000       4.40910000      -0.33230000
H        1.58440000       2.48830000       2.21580000
H        3.28160000       3.64140000       0.41830000
H        2.41910000       4.85650000       1.40870000
