20
Properties=species:S:1:pos:R:3 gdb_99813=T pbc="F F F"
C        0.10710000       1.54410000      -0.06090000
C       -0.01250000       0.02090000       0.01550000
C       -1.47340000      -0.51820000       0.01450000
C       -1.45620000      -2.07050000       0.01920000
C       -2.15840000      -0.05100000       1.22110000
C       -2.66180000       0.29670000       2.25490000
C       -2.27120000      -0.04830000      -1.23660000
N       -1.64640000      -0.26740000      -2.43320000
O       -3.38290000       0.42900000      -1.17250000
H        1.15610000       1.85060000      -0.00900000
H       -0.31030000       1.93320000      -0.99490000
H       -0.42730000       2.01550000       0.76820000
H        0.54120000      -0.44430000      -0.81070000
H        0.46400000      -0.34310000       0.93220000
H       -0.93820000      -2.43390000       0.91070000
H       -2.47480000      -2.46550000       0.02870000
H       -0.94220000      -2.45710000      -0.86550000
H       -3.13570000       0.61610000       3.14990000
H       -0.68960000      -0.56160000      -2.50680000
H       -2.11760000       0.05050000      -3.26420000
