17
Properties=species:S:1:pos:R:3 gdb_68099=T pbc="F F F"
O        0.21890000       1.37060000      -0.05210000
C        0.13800000      -0.00590000      -0.03740000
C       -1.21190000      -0.83360000      -0.02960000
C       -0.28250000      -2.00160000       0.49930000
O       -0.72920000      -3.12800000       1.15740000
C        0.62870000      -2.23540000      -0.71940000
C        0.94140000      -0.75170000      -1.11840000
C        0.41500000      -0.84150000       1.21620000
O        0.68800000      -0.59160000       2.35900000
H        0.13980000       1.68310000       0.85770000
H       -1.93320000      -0.48250000       0.71070000
H       -1.67620000      -0.99780000      -1.00380000
H       -0.82720000      -2.90760000       2.09200000
H        1.52140000      -2.80450000      -0.44910000
H        0.09900000      -2.78190000      -1.50370000
H        0.58060000      -0.49730000      -2.11810000
H        2.00530000      -0.50840000      -1.06650000
