16
Properties=species:S:1:pos:R:3 gdb_10688=T pbc="F F F"
C       -0.09330000       1.57090000       0.29180000
C       -0.02230000       0.06480000      -0.01120000
N        0.80570000      -0.70360000       0.91790000
C       -1.42640000      -0.54880000      -0.02550000
C       -1.68000000      -1.94700000       0.37180000
O       -1.98200000      -0.86190000       1.25650000
C       -2.35850000       0.06480000      -0.95900000
N       -3.07020000       0.55840000      -1.72430000
H        0.91280000       2.00070000       0.28760000
H       -0.69490000       2.10840000      -0.44750000
H       -0.53460000       1.73990000       1.28000000
H        0.39320000      -0.07720000      -1.01710000
H        1.76520000      -0.37820000       0.86530000
H        0.48600000      -0.53210000       1.86760000
H       -2.54650000      -2.46280000      -0.03590000
H       -0.82230000      -2.54880000       0.65460000
