20
Properties=species:S:1:pos:R:3 gdb_103359=T pbc="F F F"
C        0.08370000       1.57720000       0.09730000
C       -0.10060000       0.06780000      -0.11780000
C        0.68100000      -0.49040000      -1.30840000
O        0.24560000       0.07490000      -2.51310000
C        2.25640000      -0.68580000      -1.08190000
N        1.84580000      -1.87440000      -0.25930000
C        0.83470000      -2.05870000      -1.35700000
C        1.70650000      -2.22650000      -2.61480000
C        2.65870000      -1.30770000      -2.42700000
H        1.13580000       1.83420000       0.25770000
H       -0.28070000       2.17910000      -0.74550000
H       -0.47690000       1.90830000       0.97620000
H        0.20780000      -0.46820000       0.78020000
H       -1.16370000      -0.14920000      -0.28490000
H        0.01320000       0.99360000      -2.35000000
H        2.89950000       0.06170000      -0.61550000
H        2.55790000      -2.60340000      -0.30480000
H       -0.00110000      -2.73740000      -1.18080000
H        1.51900000      -2.88200000      -3.45260000
H        3.46930000      -0.99910000      -3.07110000
