19
Properties=species:S:1:pos:R:3 gdb_87692=T pbc="F F F"
C       -0.09230000       1.52960000      -0.11550000
C       -0.01800000       0.03090000       0.03900000
N        1.31150000      -0.58800000      -0.11660000
C        0.66060000      -0.61730000       1.18400000
C        1.22250000      -0.08350000       2.51530000
N        0.69560000      -1.31770000       3.11920000
C        0.69490000      -1.80850000       4.47030000
C        0.20550000      -1.85160000       1.94970000
O       -0.34140000      -2.89340000       1.68570000
H        0.80020000       2.00520000       0.29960000
H       -0.15990000       1.80520000      -1.17310000
H       -0.97390000       1.93090000       0.39540000
H       -0.86560000      -0.52520000      -0.36020000
H        1.23520000      -1.50630000      -0.55090000
H        2.31380000       0.00160000       2.54950000
H        0.76240000       0.83360000       2.90090000
H        0.15570000      -1.13240000       5.14560000
H        0.19320000      -2.77940000       4.46990000
H        1.71460000      -1.93870000       4.85360000
