17
Properties=species:S:1:pos:R:3 gdb_96606=T pbc="F F F"
C        0.09000000       1.41750000      -0.11290000
N        0.07820000      -0.02650000      -0.04890000
C        0.62560000      -0.66070000       0.90960000
C        1.30480000       0.00530000       2.01400000
N        1.82350000       0.61100000       2.85190000
N        0.60100000      -2.04750000       0.94900000
C       -0.07480000      -2.73640000      -0.14820000
C        1.18680000      -2.77460000       1.97640000
N        1.15930000      -4.04520000       2.00340000
H        0.56610000       1.72520000      -1.05080000
H       -0.94440000       1.77730000      -0.15350000
H        0.60230000       1.91530000       0.72060000
H        0.39840000      -2.47770000      -1.09860000
H        0.00170000      -3.80410000       0.04320000
H       -1.12090000      -2.42460000      -0.19600000
H        1.65630000      -2.13840000       2.72960000
H        1.63970000      -4.38890000       2.83150000
