21
Properties=species:S:1:pos:R:3 gdb_111173=T pbc="F F F"
C        0.06930000       1.56630000       0.01170000
C        0.07400000       0.04350000       0.19840000
C       -1.32020000      -0.55480000       0.06620000
C       -2.02140000      -0.74370000      -1.32300000
C       -1.09760000      -1.96880000      -1.57690000
C       -1.55570000      -2.09270000      -0.09540000
C       -2.99870000      -1.74970000      -0.61480000
C       -4.01570000      -1.26950000       0.29840000
C       -4.89040000      -0.89890000       1.03700000
H        1.06940000       1.98720000       0.15380000
H       -0.26880000       1.84120000      -0.99320000
H       -0.60220000       2.05090000       0.72900000
H        0.78090000      -0.40490000      -0.50730000
H        0.45560000      -0.19680000       1.19970000
H       -1.97810000      -0.09890000       0.81320000
H       -2.31390000       0.02890000      -2.03580000
H       -1.47590000      -2.72750000      -2.26770000
H       -0.04220000      -1.77170000      -1.76040000
H       -1.30560000      -2.88150000       0.61610000
H       -3.41560000      -2.50560000      -1.28800000
H       -5.65720000      -0.56690000       1.69220000
