17
Properties=species:S:1:pos:R:3 gdb_19791=T pbc="F F F"
C       -0.03770000       1.57120000      -0.05760000
C        0.02810000       0.04650000      -0.01220000
C        0.64800000      -0.60780000      -1.24440000
O        2.02750000      -0.27770000      -1.45540000
C        1.71300000      -1.51420000      -0.79440000
C        1.77450000      -1.44280000       0.71330000
C        2.19170000      -0.14100000       1.29840000
N        0.76380000      -0.46930000       1.17510000
H        0.94760000       2.00180000      -0.25320000
H       -0.71490000       1.90250000      -0.85100000
H       -0.40790000       1.96250000       0.89380000
H       -0.99260000      -0.34920000       0.08000000
H        0.05810000      -0.75950000      -2.14700000
H        2.00560000      -2.41810000      -1.32050000
H        1.86180000      -2.37740000       1.26050000
H        2.54620000      -0.09830000       2.32490000
H        2.63950000       0.57410000       0.61780000
