16
Properties=species:S:1:pos:R:3 gdb_34231=T pbc="F F F"
C       -0.03740000      -1.19480000       0.07140000
C       -0.04850000       0.00740000       0.03660000
C       -0.07760000       1.43660000      -0.00920000
N       -1.04310000       2.22320000       0.81680000
C       -0.67040000       3.36090000      -0.09890000
C        0.74740000       3.64740000       0.42730000
C        1.27940000       2.29190000      -0.06520000
O        1.13440000       2.43300000      -1.50940000
C       -0.26410000       2.33230000      -1.26020000
H       -0.02310000      -2.25630000       0.10160000
H       -1.97440000       1.88760000       0.56750000
H       -1.38440000       4.17190000      -0.22010000
H        1.27120000       4.46380000      -0.07270000
H        0.74510000       3.77880000       1.50980000
H        2.24330000       1.90020000       0.25040000
H       -0.90120000       2.14320000      -2.12330000
