16
Properties=species:S:1:pos:R:3 gdb_15626=T pbc="F F F"
C       -0.00580000       1.43210000      -0.06240000
N       -0.00890000      -0.00530000       0.09990000
C        0.63700000      -0.62820000       1.10770000
N        1.22780000      -0.07550000       2.10780000
C        1.76460000      -1.12280000       2.99080000
C        1.42940000      -2.50000000       2.37560000
C        0.68430000      -2.13300000       1.10300000
O        0.22490000      -2.84400000       0.24230000
H        0.98010000       1.81600000      -0.35720000
H       -0.73600000       1.71030000      -0.82510000
H       -0.27860000       1.91000000       0.88260000
H       -0.30390000      -0.60330000      -0.65590000
H        2.84530000      -0.97700000       3.10280000
H        1.33340000      -1.00450000       3.99170000
H        2.31160000      -3.09880000       2.13030000
H        0.78970000      -3.12010000       3.01110000
