16
Properties=species:S:1:pos:R:3 gdb_75777=T pbc="F F F"
C       -0.36920000       1.43730000      -0.04820000
C       -0.00210000      -0.03940000      -0.04180000
C        1.25790000      -0.47130000      -0.79240000
O        1.71180000      -0.36510000      -1.88240000
O        1.82820000      -1.09590000       0.29750000
C        0.72770000      -0.68720000       1.18490000
C        1.23310000       0.21640000       2.29910000
C        0.04620000      -1.86900000       1.72130000
N       -0.51820000      -2.77810000       2.15670000
H        0.47050000       2.07550000       0.23670000
H       -0.67780000       1.72550000      -1.05670000
H       -1.20360000       1.63540000       0.63050000
H       -0.85520000      -0.64690000      -0.35620000
H        1.77610000       1.06400000       1.87700000
H        0.39800000       0.58720000       2.89960000
H        1.90940000      -0.34100000       2.95130000
