22
Properties=species:S:1:pos:R:3 gdb_17622=T pbc="F F F"
C       -0.19640000       1.51730000      -0.06410000
C       -0.03080000      -0.00950000      -0.08520000
C       -1.38590000      -0.67560000      -0.37180000
C        1.06410000      -0.46550000      -1.08180000
C        2.43710000       0.17080000      -0.80630000
C        1.22040000      -1.97540000      -1.07270000
C        0.64490000      -2.85700000      -2.09580000
O        2.03600000      -2.53540000      -2.10670000
H        0.71220000       2.03080000       0.25990000
H       -0.46020000       1.89620000      -1.05910000
H       -0.99970000       1.80620000       0.62160000
H        0.29260000      -0.32430000       0.91890000
H       -1.74520000      -0.41510000      -1.37480000
H       -1.33270000      -1.76570000      -0.31020000
H       -2.14110000      -0.33820000       0.34540000
H        0.74920000      -0.17630000      -2.09480000
H        3.18610000      -0.25630000      -1.47830000
H        2.42430000       1.25240000      -0.95930000
H        2.75920000      -0.01990000       0.22460000
H        1.41220000      -2.40940000      -0.08740000
H        0.40420000      -3.89210000      -1.85540000
H        0.05950000      -2.42330000      -2.90580000
