13
Properties=species:S:1:pos:R:3 gdb_5162=T pbc="F F F"
N       -0.16980000       1.34200000       0.08870000
C       -0.38990000       0.16470000      -0.29080000
O       -0.20450000      -0.85970000       0.59520000
C       -0.64440000      -2.09030000       0.22430000
C       -1.76790000      -2.56840000      -0.39550000
N       -1.69280000      -3.94310000      -0.48670000
C       -0.55810000      -4.27940000       0.07430000
N        0.12910000      -3.18420000       0.52340000
H       -0.32180000       1.99170000      -0.67990000
H       -0.71470000      -0.18800000      -1.27570000
H       -2.61860000      -2.01520000      -0.76020000
H       -0.17910000      -5.28290000       0.19440000
H        1.02000000      -3.15510000       0.99150000
