18
Properties=species:S:1:pos:R:3 gdb_46118=T pbc="F F F"
O        0.24830000       0.13590000       0.03490000
C        0.10030000       1.32880000       0.02450000
C       -0.98520000       2.13180000       0.75170000
C       -0.85410000       3.53210000       0.12460000
N        0.55710000       3.68040000      -0.29400000
C        1.40280000       4.20570000       0.78800000
C        2.77800000       4.43580000       0.35510000
C        3.91730000       4.61040000       0.01580000
C        0.96040000       2.34640000      -0.74740000
H       -1.96390000       1.66100000       0.63580000
H       -0.75060000       2.13680000       1.82290000
H       -1.48780000       3.60600000      -0.76730000
H       -1.13800000       4.34490000       0.79640000
H        0.96630000       5.15830000       1.11110000
H        1.42470000       3.55590000       1.68490000
H        4.92180000       4.77440000      -0.28730000
H        2.02850000       2.16560000      -0.61190000
H        0.74390000       2.22380000      -1.81840000
