18
Properties=species:S:1:pos:R:3 gdb_51606=T pbc="F F F"
O       -0.73970000       0.49100000       0.17950000
C       -0.10970000       1.51580000       0.14120000
C        1.35100000       1.61660000      -0.25650000
C        1.53770000       2.61920000      -1.37840000
N        1.47060000       4.04580000      -1.01870000
C        2.73200000       3.49670000      -1.54460000
C        3.93000000       3.51150000      -0.61540000
C        4.50880000       4.90930000      -0.50150000
O        5.65960000       5.19300000      -0.71100000
H       -0.57490000       2.49290000       0.40000000
H        1.90510000       1.94700000       0.63000000
H        1.70810000       0.62370000      -0.54480000
H        1.05510000       2.32480000      -2.30950000
H        0.97880000       4.58080000      -1.72830000
H        2.97960000       3.73890000      -2.57730000
H        3.62010000       3.20710000       0.39140000
H        4.71330000       2.83180000      -0.96300000
H        3.76560000       5.68220000      -0.20400000
