15
Properties=species:S:1:pos:R:3 gdb_42743=T pbc="F F F"
O       -0.01860000       0.01100000       0.05170000
C       -0.06140000       1.20820000       0.03890000
C       -1.27520000       2.15260000       0.00230000
C       -0.72160000       3.28850000      -0.89600000
C        0.51970000       3.58140000      -0.01430000
C       -0.12740000       3.64390000       1.37050000
C       -1.17550000       2.80970000       1.38020000
C        1.16830000       2.18710000       0.02750000
O        2.32560000       1.87700000       0.02960000
H       -2.21700000       1.68020000      -0.26750000
H       -0.46520000       2.95470000      -1.90760000
H       -1.40200000       4.14260000      -0.94920000
H        1.18800000       4.39090000      -0.29900000
H        0.29060000       4.18440000       2.20910000
H       -1.78650000       2.53120000       2.22820000
