14
Properties=species:S:1:pos:R:3 gdb_13658=T pbc="F F F"
O        0.10070000       1.38700000       0.38170000
C        0.03460000       0.02260000       0.15340000
C       -0.49240000      -0.80260000       1.26650000
C       -1.33990000      -0.65570000      -0.00470000
C       -2.51500000       0.14400000       0.00800000
C       -3.51610000       0.82470000      -0.01980000
C       -4.68680000       1.65450000      -0.01040000
O       -5.68700000       1.44920000      -0.66270000
H       -0.13080000       1.84780000      -0.43250000
H        0.82630000      -0.39430000      -0.46880000
H       -0.06020000      -1.77750000       1.45770000
H       -0.84150000      -0.26230000       2.13780000
H       -1.36680000      -1.51880000      -0.66320000
H       -4.60840000       2.53340000       0.66280000
