16
Properties=species:S:1:pos:R:3 gdb_77844=T pbc="F F F"
C       -0.22330000       1.60840000       0.00730000
C        0.03650000       0.10770000      -0.00990000
C        0.75330000      -0.59700000      -1.17040000
C        2.21660000      -0.36370000      -1.22630000
C        2.87780000       0.85600000      -0.83000000
N        3.44930000       1.81930000      -0.54250000
N        1.68990000      -1.34070000      -0.22150000
C        1.10990000      -0.53260000       0.86550000
N        1.36930000      -0.49010000       2.08840000
H        0.68280000       2.18500000      -0.18520000
H       -0.97380000       1.87680000      -0.74260000
H       -0.60530000       1.90040000       0.98950000
H       -0.90000000      -0.43060000       0.18060000
H        0.26380000      -1.12520000      -1.98100000
H        2.74120000      -0.87980000      -2.02610000
H        2.14930000      -1.10900000       2.32380000
