17
Properties=species:S:1:pos:R:3 gdb_29586=T pbc="F F F"
O       -0.30370000       1.28020000       0.11820000
C       -0.09810000      -0.06620000       0.05070000
C       -0.03740000      -0.79170000      -1.11520000
N        0.18340000      -2.10590000      -0.75410000
C        0.26060000      -2.21810000       0.60180000
C        0.08310000      -0.96060000       1.15140000
C        0.10520000      -0.59150000       2.58750000
C       -1.00340000       0.22340000       3.17420000
N       -0.85850000      -1.19500000       3.53330000
H       -0.27090000       1.53210000       1.04710000
H       -0.13230000      -0.48740000      -2.14310000
H        0.26650000      -2.86890000      -1.40110000
H        0.43540000      -3.16870000       1.07960000
H        1.08810000      -0.46610000       3.03970000
H       -0.79670000       0.92170000       3.98050000
H       -1.82710000       0.50700000       2.52380000
H       -1.53060000      -1.73610000       2.99330000
