13
Properties=species:S:1:pos:R:3 gdb_45916=T pbc="F F F"
N       -0.19360000       1.35150000      -0.18210000
C       -0.05420000       0.12850000       0.07050000
C       -1.17790000      -0.85790000      -0.10000000
N       -1.14110000      -1.86160000       0.94910000
C        0.00480000      -2.36810000       1.47610000
O        0.06210000      -3.29510000       2.24780000
C        1.29800000      -1.64510000       1.03490000
O        2.38320000      -2.08750000       1.22680000
O        1.16680000      -0.40540000       0.43820000
H        0.68830000       1.85360000      -0.06290000
H       -2.11640000      -0.30550000      -0.05830000
H       -1.09980000      -1.31280000      -1.09940000
H       -1.98580000      -2.36600000       1.17810000
