20
Properties=species:S:1:pos:R:3 gdb_46315=T pbc="F F F"
N       -0.02310000       1.23410000      -0.34140000
C        0.00040000       0.01920000      -0.03090000
O        1.02550000      -0.77150000       0.44020000
C        0.14990000      -1.94310000       0.47740000
C       -1.03570000      -1.09200000      -0.04030000
C       -2.24380000      -0.90860000       0.91640000
C       -3.46190000      -0.72330000      -0.00350000
C       -3.15010000      -1.65800000      -1.18040000
C       -1.64960000      -1.41790000      -1.43070000
H        0.88680000       1.67690000      -0.20400000
H        0.51740000      -2.72410000      -0.19420000
H        0.05960000      -2.32750000       1.49730000
H       -2.36620000      -1.82210000       1.51130000
H       -2.09700000      -0.08040000       1.61370000
H       -4.40780000      -0.94910000       0.49670000
H       -3.50950000       0.31430000      -0.35370000
H       -3.32690000      -2.69980000      -0.88480000
H       -3.75990000      -1.46280000      -2.06660000
H       -1.51690000      -0.54590000      -2.07900000
H       -1.15070000      -2.26220000      -1.91460000
