22
Properties=species:S:1:pos:R:3 gdb_98260=T pbc="F F F"
C       -0.10760000       1.54860000      -0.12710000
C       -0.01520000       0.01140000      -0.05470000
N       -1.32230000      -0.62720000       0.04580000
C       -1.21660000      -2.08080000       0.07640000
C       -2.11580000      -0.14750000       1.16880000
C        0.72030000      -0.42710000      -1.32390000
O        0.18390000      -0.54100000      -2.40390000
C        2.21640000      -0.68740000      -1.21010000
O        2.78840000      -0.92230000      -2.45970000
H        0.87120000       1.98010000      -0.35710000
H       -0.80800000       1.83650000      -0.91540000
H       -0.43540000       1.97500000       0.82270000
H        0.63140000      -0.25370000       0.80910000
H       -0.65860000      -2.45710000       0.95610000
H       -2.21920000      -2.51640000       0.10590000
H       -0.72500000      -2.44570000      -0.82830000
H       -2.34350000       0.91490000       1.06340000
H       -3.06690000      -0.68730000       1.18440000
H       -1.62550000      -0.30180000       2.15010000
H        2.69620000       0.16670000      -0.70530000
H        2.34420000      -1.54990000      -0.53080000
H        2.03770000      -0.93780000      -3.07630000
