23
Properties=species:S:1:pos:R:3 gdb_110362=T pbc="F F F"
C        0.05250000       1.43810000      -0.31050000
C       -0.05190000       0.00010000       0.21050000
C       -1.47450000      -0.52740000       0.20430000
C       -1.98980000      -1.14910000      -1.07480000
C       -1.68020000      -2.02190000       0.13440000
C       -3.07000000      -2.64540000       0.37430000
C       -3.45640000      -3.03220000      -1.09820000
C       -3.48720000      -1.47010000      -1.25780000
C       -4.06360000      -1.46690000       0.18450000
H        1.08740000       1.79420000      -0.29160000
H       -0.31160000       1.51000000      -1.34050000
H       -0.54640000       2.12330000       0.29980000
H        0.58300000      -0.65760000      -0.39710000
H        0.34730000      -0.05100000       1.23200000
H       -2.15030000       0.07110000       0.80800000
H       -1.35250000      -1.14380000      -1.95320000
H       -0.81230000      -2.67260000       0.16300000
H       -3.16980000      -3.34790000       1.20240000
H       -2.71790000      -3.58560000      -1.68540000
H       -4.44260000      -3.49830000      -1.18220000
H       -4.00910000      -0.98280000      -2.08200000
H       -5.09850000      -1.81530000       0.19850000
H       -3.97980000      -0.57440000       0.80550000
