21
Properties=species:S:1:pos:R:3 gdb_114698=T pbc="F F F"
C       -0.70120000       1.03280000      -0.24110000
O       -0.25220000      -0.30550000      -0.35760000
C        0.92160000      -0.43870000      -1.12050000
C        1.32320000      -1.92530000      -1.12960000
C        0.83720000      -2.44730000      -2.47770000
C        1.53050000      -3.64010000      -3.08910000
C       -0.62040000      -2.14590000      -2.80380000
C        0.47520000      -1.20860000      -3.24460000
O        0.72770000      -0.05550000      -2.47350000
H        0.06490000       1.66890000       0.22860000
H       -0.95780000       1.45800000      -1.21790000
H       -1.58850000       1.01760000       0.39540000
H        1.69140000       0.23610000      -0.71860000
H        2.41270000      -2.02030000      -1.07070000
H        0.88690000      -2.43360000      -0.26670000
H        1.34550000      -4.55130000      -2.50790000
H        1.17500000      -3.82500000      -4.10780000
H        2.61570000      -3.48960000      -3.13530000
H       -1.08510000      -2.75810000      -3.57070000
H       -1.27790000      -1.81890000      -2.00730000
H        0.70260000      -1.05110000      -4.29280000
