15
Properties=species:S:1:pos:R:3 gdb_74579=T pbc="F F F"
N       -0.14010000       1.33920000       0.06790000
C       -0.12120000      -0.02310000       0.02860000
N       -1.11170000      -0.79140000      -0.23420000
C       -0.62480000      -2.15320000      -0.05810000
C        0.86800000      -1.98350000       0.40660000
C        0.52670000      -2.50310000       1.82420000
C       -0.92860000      -2.74210000       1.34880000
O       -1.89120000      -3.22630000       1.85990000
O        1.09190000      -0.56700000       0.34050000
H        0.74510000       1.79620000      -0.08490000
H       -0.93290000       1.76050000      -0.38970000
H       -0.87270000      -2.79710000      -0.90740000
H        1.67280000      -2.48830000      -0.12570000
H        1.03990000      -3.42140000       2.12450000
H        0.64050000      -1.76050000       2.61910000
