23
Properties=species:S:1:pos:R:3 gdb_121825=T pbc="F F F"
C        0.15530000       1.37840000      -0.00880000
O        0.05910000      -0.02510000       0.00420000
C       -1.27560000      -0.48480000       0.01830000
C       -1.23070000      -2.00980000       0.05500000
C       -2.60510000      -2.72830000       0.07110000
C       -3.42380000      -2.40350000       1.32640000
C       -3.41320000      -2.42790000      -1.21260000
C       -2.28680000      -4.22090000       0.03130000
O       -2.63570000      -5.03510000       0.84520000
H        1.21770000       1.63370000      -0.01760000
H       -0.32210000       1.81430000      -0.90130000
H       -0.31110000       1.82940000       0.88180000
H       -1.80590000      -0.08390000       0.89760000
H       -1.81000000      -0.12270000      -0.87550000
H       -0.65120000      -2.34670000      -0.81370000
H       -0.66000000      -2.30450000       0.94370000
H       -3.74280000      -1.35740000       1.33110000
H       -4.31610000      -3.03290000       1.37490000
H       -2.84330000      -2.59230000       2.23370000
H       -2.84290000      -2.67790000      -2.11390000
H       -4.34340000      -3.00500000      -1.22920000
H       -3.68110000      -1.36940000      -1.26880000
H       -1.67960000      -4.52360000      -0.85560000
