15
Properties=species:S:1:pos:R:3 gdb_7714=T pbc="F F F"
N       -0.08220000       1.32790000      -0.12670000
C       -0.02290000       0.06560000       0.01060000
C       -1.29280000      -0.76320000       0.11050000
N       -1.15980000      -1.96500000       0.92600000
C       -0.05260000      -2.79450000       0.46980000
C        1.27130000      -2.06080000       0.25800000
O        2.35190000      -2.60560000       0.24450000
N        1.15430000      -0.68850000       0.07380000
H        0.84560000       1.75010000      -0.21210000
H       -2.08520000      -0.12100000       0.49670000
H       -1.58590000      -1.06680000      -0.90410000
H       -1.01280000      -1.70330000       1.89590000
H        0.13460000      -3.60840000       1.17360000
H       -0.32280000      -3.26080000      -0.48820000
H        2.03930000      -0.20490000      -0.02640000
