18
Properties=species:S:1:pos:R:3 gdb_20168=T pbc="F F F"
C       -0.02400000       1.54320000      -0.17580000
C        1.52680000       1.56770000       0.03830000
C        2.00750000       1.96170000       1.45740000
C        2.12070000       0.64730000       2.27970000
C        1.47030000      -0.43700000       1.42760000
O        0.01620000      -0.34920000       1.41920000
C       -0.01490000       0.01730000       0.02060000
C        1.53310000       0.00250000      -0.04540000
H       -0.64050000       2.11290000       0.52540000
H       -0.29730000       1.81610000      -1.20020000
H        2.07080000       2.09670000      -0.74550000
H        2.97560000       2.46960000       1.41360000
H        1.30770000       2.66640000       1.91640000
H        3.17170000       0.38490000       2.44870000
H        1.64130000       0.71040000       3.26090000
H        1.79230000      -1.45330000       1.68120000
H       -0.69860000      -0.61180000      -0.55480000
H        2.14480000      -0.52140000      -0.77630000
