17
Properties=species:S:1:pos:R:3 gdb_23279=T pbc="F F F"
O       -0.23240000       1.27270000       0.28500000
N       -0.02750000      -0.11830000       0.12620000
C       -1.14130000      -0.71150000      -0.04340000
C       -1.27120000      -2.17690000      -0.20080000
C       -2.22240000      -2.81540000       0.76480000
N       -2.66440000      -2.49510000      -0.59000000
C       -3.40130000      -1.21260000      -0.67200000
C       -2.52670000      -0.07860000      -0.10070000
O       -2.97920000       0.29980000       1.19610000
H        0.66770000       1.60350000       0.37320000
H       -0.46550000      -2.74670000      -0.64960000
H       -2.11750000      -3.87610000       0.97420000
H       -2.58650000      -2.20660000       1.58830000
H       -3.61160000      -1.02610000      -1.72920000
H       -4.35180000      -1.27980000      -0.13700000
H       -2.51270000       0.79170000      -0.76770000
H       -2.35570000       0.96260000       1.51780000
