14
Properties=species:S:1:pos:R:3 gdb_34776=T pbc="F F F"
N        0.04800000      -1.16690000       0.12090000
C        0.02730000      -0.01070000       0.09740000
C        0.02200000       1.42960000       0.07240000
C        0.53170000       2.24360000       1.20590000
C        1.65940000       1.51420000       1.95390000
C        2.38230000       1.47270000       0.56480000
N        1.26500000       2.22630000      -0.10830000
C        2.33160000       2.31030000       2.96580000
N        2.86630000       2.94780000       3.76780000
H       -0.80510000       1.85850000      -0.48520000
H       -0.00290000       3.11400000       1.57000000
H        1.37770000       0.54690000       2.37930000
H        3.28710000       2.07800000       0.53670000
H        2.57610000       0.48160000       0.15010000
