17
Properties=species:S:1:pos:R:3 gdb_126104=T pbc="F F F"
C        0.07210000       1.55490000       0.00950000
C        0.00230000       0.01670000       0.00260000
C       -1.36400000      -0.49280000       0.01200000
C       -2.50230000      -0.89470000       0.02000000
C       -3.82450000      -1.39420000       0.02960000
C       -5.01230000      -0.67560000       0.04130000
N       -6.01070000      -1.58630000       0.04720000
N       -5.57330000      -2.86160000       0.04010000
C       -4.25240000      -2.75200000       0.02940000
H        1.11390000       1.88900000       0.00200000
H       -0.42970000       1.97050000      -0.86850000
H       -0.41420000       1.96190000       0.90020000
H        0.53010000      -0.36860000      -0.88000000
H        0.54540000      -0.37720000       0.87190000
H       -5.19820000       0.38610000       0.04560000
H       -7.00120000      -1.41200000       0.05590000
H       -3.63180000      -3.63520000       0.02180000
