19
Properties=species:S:1:pos:R:3 gdb_118698=T pbc="F F F"
C        0.01430000       1.34740000       0.07150000
O       -0.06800000      -0.05020000       0.22260000
C       -1.34250000      -0.57390000      -0.11770000
C       -1.21100000      -2.07250000      -0.05930000
O       -0.16350000      -2.57550000      -0.83750000
C       -1.51390000      -2.83550000       1.21790000
O       -2.04190000      -2.10350000       2.29720000
C       -2.42390000      -2.96330000       0.00680000
O       -3.69950000      -2.40490000       0.09930000
H        1.02900000       1.64740000       0.34430000
H       -0.18350000       1.65730000      -0.96650000
H       -0.69890000       1.86910000       0.72790000
H       -2.11310000      -0.20780000       0.57180000
H       -1.61870000      -0.26770000      -1.13940000
H        0.60750000      -2.03910000      -0.60930000
H       -0.83880000      -3.64860000       1.47330000
H       -2.44520000      -2.73080000       2.90790000
H       -2.39590000      -3.87360000      -0.58510000
H       -3.76030000      -2.02810000       0.98860000
