15
Properties=species:S:1:pos:R:3 gdb_42574=T pbc="F F F"
O        0.01670000       0.03290000       0.10360000
C        0.00780000       1.23460000       0.03130000
C       -1.18530000       2.13630000      -0.02140000
C       -1.03890000       3.53950000       0.59280000
C       -0.86680000       3.32880000      -0.89530000
C        0.67370000       3.47110000      -0.71210000
C        0.46100000       3.87560000       0.76110000
O        1.28790000       2.80730000       1.26250000
C        1.22040000       2.16890000      -0.05410000
H       -2.17780000       1.70440000      -0.01730000
H       -1.87280000       3.96060000       1.14040000
H       -1.47020000       3.65360000      -1.73120000
H        1.28170000       4.02910000      -1.41750000
H        0.69740000       4.84870000       1.19370000
H        2.16020000       1.70430000      -0.35140000
