19
Properties=species:S:1:pos:R:3 gdb_13315=T pbc="F F F"
N        0.09030000      -1.21550000       0.06380000
C        0.03460000      -0.06120000       0.08050000
C       -0.01050000       1.40030000       0.10180000
C        1.37580000       2.04560000      -0.06910000
C        2.05720000       1.77070000      -1.41950000
C        3.18670000       2.81900000      -1.48340000
C        2.68410000       4.03080000      -0.64110000
C        1.34090000       3.58320000      -0.01380000
H       -0.68110000       1.73870000      -0.69800000
H       -0.46490000       1.71550000       1.04840000
H        2.02620000       1.67470000       0.73400000
H        2.41540000       0.74280000      -1.51900000
H        1.33250000       1.94160000      -2.22710000
H        4.10200000       2.40890000      -1.04510000
H        3.42980000       3.09670000      -2.51210000
H        3.40950000       4.28370000       0.13750000
H        2.55590000       4.92950000      -1.25000000
H        0.50000000       3.94350000      -0.62070000
H        1.19210000       3.97000000       0.99880000
