19
Properties=species:S:1:pos:R:3 gdb_90114=T pbc="F F F"
O        0.37940000       1.36970000      -0.21530000
C        0.17200000      -0.00650000      -0.08610000
C        0.30960000      -0.60490000       1.40400000
C       -1.23880000      -0.49810000       1.48660000
C       -2.64070000      -1.25610000       1.47770000
C       -2.83160000      -0.28920000       0.20070000
C       -2.78080000       1.07160000       0.89950000
C       -1.75220000       0.93350000       1.74150000
C       -1.29890000      -0.59890000      -0.02940000
H       -0.33710000       1.81700000       0.25150000
H        0.81800000      -0.48220000      -0.82920000
H        0.68760000      -1.63010000       1.38870000
H        0.90230000      -0.00380000       2.10010000
H       -2.58380000      -2.31820000       1.22200000
H       -3.32160000      -1.08740000       2.31690000
H       -3.60570000      -0.47410000      -0.54510000
H       -3.47380000       1.89010000       0.76410000
H       -1.36210000       1.61210000       2.48920000
H       -1.20010000      -1.64460000      -0.34200000
