19
Properties=species:S:1:pos:R:3 gdb_80951=T pbc="F F F"
C       -0.06330000       1.57590000      -0.08810000
C        0.09730000       0.07270000       0.01800000
N        1.29640000      -0.59540000      -0.71250000
C        2.13340000      -0.14310000       0.49970000
C        0.84060000      -0.64130000       1.18950000
C        0.48610000      -0.71410000       2.65180000
C        0.98440000      -1.82040000       0.17600000
C       -0.17340000      -2.62810000      -0.18290000
N       -1.08080000      -3.30040000      -0.43150000
H       -0.22680000       1.85320000      -1.13450000
H       -0.94770000       1.88650000       0.47780000
H        0.78730000       2.15090000       0.28350000
H       -0.84110000      -0.40420000      -0.28160000
H        3.04620000      -0.72920000       0.63920000
H        2.35780000       0.92180000       0.50780000
H        0.44410000       0.28840000       3.09060000
H       -0.49140000      -1.18670000       2.79250000
H        1.22770000      -1.29500000       3.21020000
H        1.85410000      -2.47070000       0.30320000
