19
Properties=species:S:1:pos:R:3 gdb_117390=T pbc="F F F"
O       -0.30750000       1.42110000      -0.35230000
C       -0.02960000       0.05120000      -0.10230000
C       -1.36580000      -0.67400000      -0.05130000
C       -1.23900000      -2.16060000       0.21290000
O       -0.16640000      -2.71890000       0.27190000
C       -2.54730000      -2.92240000       0.43590000
C       -2.44680000      -4.37950000       0.05670000
C       -3.63620000      -5.17630000      -0.26060000
O       -2.77760000      -4.69920000      -1.29780000
H        0.53040000       1.88890000      -0.41220000
H        0.59710000      -0.39030000      -0.88930000
H        0.50360000      -0.08940000       0.84930000
H       -2.01400000      -0.22460000       0.71300000
H       -1.90280000      -0.53740000      -1.00020000
H       -2.77930000      -2.83060000       1.50760000
H       -3.37080000      -2.44590000      -0.10560000
H       -1.55880000      -4.88610000       0.42980000
H       -3.62560000      -6.25340000      -0.09930000
H       -4.62190000      -4.71330000      -0.22020000
