17
Properties=species:S:1:pos:R:3 gdb_130206=T pbc="F F F"
N        0.19800000       1.26690000      -0.44430000
C        0.08150000      -0.09090000      -0.14540000
N       -1.08740000      -0.71990000      -0.12840000
N       -0.76770000      -2.01190000       0.13260000
C        0.56610000      -2.21090000       0.28210000
C        1.16360000      -0.97870000       0.10550000
N        2.51280000      -0.59000000       0.22120000
C        3.54130000      -1.52760000      -0.21390000
C        3.25210000      -0.30960000      -1.01800000
H        0.90550000       1.72050000       0.12030000
H       -0.68990000       1.74460000      -0.35370000
H       -1.50420000      -2.69040000       0.19660000
H        0.98070000      -3.17880000       0.51310000
H        4.42550000      -1.57840000       0.41440000
H        3.21430000      -2.47920000      -0.62770000
H        2.72280000      -0.44510000      -1.95720000
H        3.91860000       0.54630000      -0.97670000
