20
Properties=species:S:1:pos:R:3 gdb_83131=T pbc="F F F"
C       -0.09810000       1.56010000       0.03340000
C        0.06520000       0.05520000       0.05210000
C        1.35930000      -0.67070000      -0.21720000
C        2.66480000       0.11200000      -0.08950000
N        2.65610000       0.55370000       1.29440000
C        1.64400000       0.04810000       2.07100000
O        1.52520000       0.19810000       3.26910000
C        0.72940000      -0.74570000       1.16340000
C        0.06370000      -1.95270000       1.77450000
H        0.76610000       2.07930000       0.45340000
H       -0.24050000       1.91760000      -0.99260000
H       -0.97730000       1.85890000       0.61350000
H       -0.79880000      -0.46840000      -0.35360000
H        1.35350000      -1.52400000      -0.88550000
H        3.52670000      -0.53530000      -0.29950000
H        2.71250000       0.96290000      -0.78200000
H        3.38250000       1.11710000       1.70600000
H       -0.52020000      -1.65360000       2.65010000
H       -0.60590000      -2.43940000       1.05920000
H        0.80080000      -2.69090000       2.10830000
