16
Properties=species:S:1:pos:R:3 gdb_44314=T pbc="F F F"
O       -0.04300000       0.05910000      -0.20890000
C        0.01490000       1.24400000      -0.02820000
C       -1.18110000       2.26690000       0.05960000
N       -0.54310000       3.59670000       0.29380000
C        0.69340000       3.52120000      -0.56970000
C        1.72180000       4.01540000       0.48050000
C        2.58900000       2.72140000       0.33410000
C        1.13530000       2.21340000       0.17840000
C        0.59520000       3.25240000       1.22440000
H       -1.75840000       2.26510000      -0.87010000
H       -1.85420000       2.00270000       0.88100000
H        0.67950000       3.67840000      -1.65010000
H        2.05420000       5.03940000       0.65210000
H        3.22660000       2.65490000      -0.55090000
H        3.12950000       2.38900000       1.22370000
H        0.46360000       3.08720000       2.29560000
