16
Properties=species:S:1:pos:R:3 gdb_20092=T pbc="F F F"
O       -0.13870000       1.09640000      -0.49420000
C       -0.14000000      -0.24400000      -0.11700000
C       -0.41680000      -0.56390000       1.33090000
O       -0.78510000       0.53980000       2.12430000
C       -1.43180000      -0.95000000       0.28060000
C       -2.77610000      -0.28630000       0.23980000
C       -3.17040000       0.65860000      -0.81870000
O       -3.62730000      -0.69280000      -0.83570000
H       -0.50270000       1.58670000       0.25650000
H        0.60520000      -0.81060000      -0.66530000
H        0.13220000      -1.34360000       1.85470000
H        0.01650000       0.89710000       2.52300000
H       -1.47470000      -2.01230000       0.05460000
H       -3.29010000      -0.21130000       1.19810000
H       -3.93510000       1.40660000      -0.61070000
H       -2.44680000       0.92120000      -1.58490000
