14
Properties=species:S:1:pos:R:3 gdb_132568=T pbc="F F F"
C       -0.06350000       1.51700000       0.01840000
C       -0.00050000       0.01840000      -0.00850000
N        0.01210000      -0.60670000      -1.18690000
C        0.06870000      -1.93690000      -1.16170000
O        0.07980000      -2.53460000      -2.36310000
N        0.11480000      -2.72880000      -0.08890000
C        0.10220000      -2.10440000       1.09090000
C        0.04490000      -0.72750000       1.17090000
F        0.03270000      -0.10880000       2.35730000
H        0.80500000       1.93330000       0.53970000
H       -0.09260000       1.90010000      -1.00150000
H       -0.95060000       1.85910000       0.56190000
H        0.12200000      -3.48470000      -2.19240000
H        0.13840000      -2.71170000       1.99150000
