18
Properties=species:S:1:pos:R:3 gdb_82785=T pbc="F F F"
O       -0.11250000       1.41460000       0.00130000
C        0.05920000       0.01120000      -0.02640000
C        0.29330000      -0.61890000       1.38260000
C        0.85640000      -2.03750000       1.25240000
C       -0.34950000      -2.82270000       0.78290000
C       -1.36310000      -2.17160000      -0.08960000
C       -1.33440000      -0.63370000      -0.01910000
C       -1.26470000      -0.84230000       1.51020000
N       -1.59450000      -2.32470000       1.40650000
H        0.72240000       1.81200000       0.27060000
H        0.76350000      -0.29530000      -0.81490000
H        0.80200000       0.01110000       2.11460000
H        1.70040000      -2.09100000       0.55600000
H        1.19290000      -2.42830000       2.21950000
H       -0.28660000      -3.90620000       0.73260000
H       -1.94440000      -2.74260000      -0.80680000
H       -2.15260000      -0.12170000      -0.52310000
H       -1.84540000      -0.29420000       2.24690000
