14
Properties=species:S:1:pos:R:3 gdb_68105=T pbc="F F F"
C        0.08960000       1.47100000       0.10740000
C       -0.04700000       0.00090000      -0.08910000
C        0.56300000      -0.94560000      -1.16020000
C       -0.00750000      -1.87210000      -0.06040000
O        0.50860000      -0.92550000       0.95690000
C        0.16700000      -3.28060000       0.13390000
N        0.26740000      -4.42540000       0.25930000
C       -1.28250000      -0.94110000      -0.03030000
O       -2.45400000      -0.96210000       0.11030000
H        1.14300000       1.76220000       0.14200000
H       -0.39190000       2.00070000      -0.72000000
H       -0.39270000       1.77600000       1.03990000
H        0.11570000      -0.98140000      -2.15580000
H        1.65380000      -0.92980000      -1.16840000
