18
Properties=species:S:1:pos:R:3 gdb_60884=T pbc="F F F"
C        0.79390000       1.25900000       0.07580000
N        0.18760000      -0.06660000       0.02200000
C       -0.54740000      -0.51220000       1.09220000
O       -0.62490000       0.04040000       2.16620000
C        0.06770000      -0.70830000      -1.24800000
C        1.33860000      -1.18130000      -1.95170000
C        0.41340000      -2.19120000      -1.37040000
C       -1.02420000      -0.21910000      -2.14160000
O       -1.80910000       0.64400000      -1.84580000
H        1.82420000       1.22320000      -0.29150000
H        0.22200000       1.97250000      -0.52620000
H        0.78590000       1.58070000       1.11670000
H       -1.05440000      -1.46940000       0.86840000
H        1.38530000      -1.06900000      -3.02930000
H        2.26500000      -0.97680000      -1.42910000
H        0.70630000      -2.68390000      -0.45190000
H       -0.19640000      -2.79140000      -2.03690000
H       -1.05790000      -0.72720000      -3.13390000
