23
Properties=species:S:1:pos:R:3 gdb_100800=T pbc="F F F"
C       -0.24550000       1.49460000      -0.04610000
C        0.02710000      -0.01740000      -0.04570000
C        0.82720000      -0.38000000      -1.30360000
O        0.02050000      -0.09860000      -2.43980000
C        0.73950000      -0.51770000       1.23770000
C        0.18850000       0.11700000       2.52200000
C        0.65270000      -2.06540000       1.35230000
C        1.50440000      -2.62250000       2.39650000
C        2.22260000      -3.06450000       3.25370000
H        0.67750000       2.06000000       0.13350000
H       -0.63990000       1.79370000      -1.01950000
H       -0.96960000       1.78200000       0.71960000
H       -0.93970000      -0.53610000      -0.12540000
H        1.75700000       0.21350000      -1.31930000
H        1.11930000      -1.44000000      -1.29590000
H        0.54480000      -0.26080000      -3.22900000
H        1.80370000      -0.25320000       1.16050000
H       -0.89240000      -0.04840000       2.60830000
H        0.66660000      -0.32880000       3.39850000
H        0.36650000       1.19410000       2.55400000
H       -0.39230000      -2.34350000       1.54700000
H        0.91640000      -2.53730000       0.39970000
H        2.85030000      -3.46570000       4.01010000
