17
Properties=species:S:1:pos:R:3 gdb_127111=T pbc="F F F"
C       -0.11570000       1.42410000       0.00430000
N        0.09170000      -0.01270000      -0.04600000
C        0.02230000      -0.74940000       1.20360000
C        0.01320000      -0.64950000      -1.23320000
N       -0.06620000      -0.10280000      -2.42370000
C       -0.07380000      -1.21250000      -3.22910000
N       -0.20480000      -1.09310000      -4.59150000
N       -0.00220000      -2.37620000      -2.62350000
O        0.04120000      -1.98640000      -1.24170000
H        0.59210000       1.87180000       0.71000000
H        0.04720000       1.84220000      -0.98780000
H       -1.13500000       1.67280000       0.33150000
H       -0.99940000      -0.77080000       1.60860000
H        0.35910000      -1.77370000       1.05070000
H        0.67350000      -0.26890000       1.94070000
H        0.16380000      -0.22830000      -4.95730000
H        0.08290000      -1.90940000      -5.11060000
