14
Properties=species:S:1:pos:R:3 gdb_11870=T pbc="F F F"
O       -0.09470000       0.01660000       0.00410000
C        0.00750000       1.21010000       0.00960000
O       -1.09710000       2.04420000       0.02950000
C       -0.66410000       3.38450000       0.03120000
C       -1.51640000       4.39120000      -0.70490000
C       -1.49570000       4.38260000       0.80190000
C        0.80520000       3.35370000       0.01090000
C        1.20570000       2.07850000      -0.00190000
H       -1.01330000       5.19240000      -1.23450000
H       -2.39260000       3.98880000      -1.19950000
H       -2.35800000       3.97450000       1.31570000
H       -0.97820000       5.17780000       1.32660000
H        1.41530000       4.24740000       0.00760000
H        2.20800000       1.67890000      -0.01800000
