19
Properties=species:S:1:pos:R:3 gdb_58957=T pbc="F F F"
C       -0.01720000       1.46490000      -0.22500000
C        0.03480000      -0.03500000       0.09070000
O        0.57650000      -0.27770000       1.38270000
C       -1.32040000      -0.66720000      -0.02890000
O       -2.27770000      -0.27350000       0.98530000
C       -2.74440000      -1.65620000       1.09710000
C       -1.85970000      -2.09610000      -0.05610000
C       -2.08370000      -1.13790000      -1.21880000
O       -3.32650000      -0.60670000      -1.54980000
H        0.97080000       1.90750000      -0.07680000
H       -0.33340000       1.63970000      -1.25830000
H       -0.72640000       1.97000000       0.43920000
H        0.70880000      -0.53580000      -0.61430000
H       -0.10450000      -0.00720000       2.01100000
H       -2.45740000      -2.07240000       2.06700000
H       -3.82820000      -1.73170000       0.95800000
H       -1.34540000      -3.04360000      -0.14590000
H       -1.49080000      -1.37070000      -2.09930000
H       -3.55470000       0.00530000      -0.83680000
