16
Properties=species:S:1:pos:R:3 gdb_46819=T pbc="F F F"
O        0.03240000       0.03600000       0.23060000
C       -0.00910000       1.22090000       0.04400000
C       -1.26010000       2.06330000      -0.24580000
C       -0.71190000       3.35140000      -0.88300000
N        0.73280000       3.47520000      -0.54690000
C        0.99890000       3.37680000       0.87180000
C        1.18120000       2.15990000      -0.00440000
C        2.47740000       1.64600000      -0.32420000
C        3.55900000       1.18930000      -0.57840000
H       -1.92750000       1.50410000      -0.90360000
H       -1.80360000       2.23130000       0.69020000
H       -0.77980000       3.30280000      -1.97310000
H       -1.22770000       4.25770000      -0.55480000
H        1.89890000       3.87950000       1.21090000
H        0.17230000       3.38050000       1.57980000
H        4.51420000       0.78750000      -0.81060000
