21
Properties=species:S:1:pos:R:3 gdb_111544=T pbc="F F F"
C        0.02370000       1.57160000      -0.20390000
C        0.04090000       0.06710000       0.08850000
C       -1.34420000      -0.57030000       0.02990000
C       -2.14250000      -0.70340000      -1.31280000
C       -1.23120000      -1.52620000      -2.26810000
C       -1.44180000      -2.67880000      -1.29180000
C       -2.73170000      -2.06850000      -0.76900000
C       -1.53490000      -2.08270000       0.13210000
O       -1.38480000      -2.87120000       1.25670000
H        1.02570000       2.00540000      -0.13020000
H       -0.35290000       1.77500000      -1.21230000
H       -0.62290000       2.10370000       0.50270000
H        0.72010000      -0.43710000      -0.60880000
H        0.45670000      -0.10480000       1.09060000
H       -2.00210000      -0.09350000       0.76810000
H       -2.72930000       0.13420000      -1.68300000
H       -1.73350000      -1.71870000      -3.22090000
H       -0.21720000      -1.15990000      -2.46400000
H       -1.22580000      -3.73290000      -1.41730000
H       -3.73090000      -2.46180000      -0.65770000
H       -0.46730000      -3.16080000       1.30450000
