20
Properties=species:S:1:pos:R:3 gdb_56153=T pbc="F F F"
C       -0.16800000       1.53480000       0.06990000
C        0.15010000       0.05420000      -0.16070000
C        0.63370000      -0.61460000       1.13660000
O       -1.06460000      -0.55010000      -0.59340000
C        1.24830000      -0.11600000      -1.22510000
O        0.85390000       0.38850000      -2.51260000
C        0.21820000      -0.48730000      -3.32340000
N       -0.01750000       0.08060000      -4.53560000
O       -0.06920000      -1.63170000      -3.02870000
H        0.68900000       2.06470000       0.49780000
H       -0.44400000       2.01340000      -0.87260000
H       -1.01150000       1.62320000       0.75990000
H       -0.13890000      -0.51910000       1.90410000
H        0.81820000      -1.68170000       0.97500000
H        1.55500000      -0.15840000       1.51560000
H       -0.85120000      -1.27390000      -1.19960000
H        2.13680000       0.45840000      -0.95180000
H        1.51780000      -1.17070000      -1.32880000
H        0.09260000       1.07440000      -4.64160000
H       -0.65250000      -0.40250000      -5.14660000
