20
Properties=species:S:1:pos:R:3 gdb_13290=T pbc="F F F"
O       -0.04180000       1.42500000      -0.16130000
C        0.03880000       0.01540000      -0.01560000
C       -1.38000000      -0.53820000      -0.01780000
C       -1.42940000      -2.06140000       0.13860000
C       -2.84880000      -2.61610000       0.11700000
C       -3.57870000      -2.66250000      -1.24680000
O       -3.72160000      -4.09550000      -1.17710000
C       -3.01280000      -4.15250000       0.07700000
H        0.85210000       1.77900000      -0.16700000
H        0.61600000      -0.43880000      -0.83800000
H        0.54350000      -0.26070000       0.92520000
H       -1.94130000      -0.05760000       0.79300000
H       -1.86610000      -0.23660000      -0.95390000
H       -0.84730000      -2.53690000      -0.66350000
H       -0.94520000      -2.35140000       1.08140000
H       -3.44740000      -2.14490000       0.90210000
H       -4.54980000      -2.15560000      -1.30040000
H       -2.97040000      -2.35200000      -2.10790000
H       -2.07340000      -4.71670000      -0.00670000
H       -3.62210000      -4.59790000       0.87310000
