15
Properties=species:S:1:pos:R:3 gdb_29646=T pbc="F F F"
C        0.13130000       1.43990000       0.01230000
N       -0.01590000       0.00190000       0.00160000
C        0.01760000      -0.76610000      -1.14570000
N        0.12120000      -0.31670000      -2.32860000
O       -0.07500000      -2.08410000      -0.75130000
C       -0.10020000      -2.10800000       0.64840000
O       -0.30340000      -3.28150000       1.27870000
C       -0.06550000      -0.85160000       1.10300000
O       -0.09560000      -0.31720000       2.34200000
H        1.17730000       1.74160000      -0.11870000
H       -0.45170000       1.85720000      -0.81100000
H       -0.23770000       1.82550000       0.96360000
H        0.10330000      -1.07510000      -3.00450000
H        0.47930000      -3.84140000       1.18670000
H       -0.27340000      -1.02830000       2.96810000
