16
Properties=species:S:1:pos:R:3 gdb_131491=T pbc="F F F"
O        0.06000000       1.35700000       0.74860000
C        0.02350000       0.06900000       0.21340000
C       -0.48920000      -1.00080000       1.11410000
C       -1.31430000      -0.59180000      -0.09970000
C       -2.58440000       0.13810000       0.05210000
N       -3.56140000      -0.10370000      -0.79720000
O       -4.61590000       0.72180000      -0.41350000
C       -4.23790000       1.43440000       0.65570000
C       -2.96760000       1.12640000       1.01280000
H       -0.13810000       1.98200000       0.04240000
H        0.84840000      -0.17420000      -0.45560000
H       -0.01600000      -1.97560000       1.10440000
H       -0.85280000      -0.67600000       2.08250000
H       -1.32120000      -1.27940000      -0.93820000
H       -4.97470000       2.11710000       1.05040000
H       -2.37700000       1.53330000       1.81420000
