27
Properties=species:S:1:pos:R:3 gdb_100103=T pbc="F F F"
C        0.50350000       1.27890000      -0.05500000
C        0.12410000      -0.18440000       0.19010000
C       -1.35370000      -0.54160000      -0.11010000
C       -2.31150000       0.25010000       0.78400000
O       -1.67630000      -0.13370000      -1.44980000
C       -1.52190000      -2.07080000       0.06660000
C       -2.92390000      -2.69720000      -0.07850000
C       -3.47650000      -2.62870000      -1.51020000
C       -2.88840000      -4.15390000       0.40960000
H        1.58650000       1.41410000       0.02490000
H        0.18940000       1.59500000      -1.05330000
H        0.03660000       1.95040000       0.67150000
H        0.75460000      -0.82800000      -0.44020000
H        0.35360000      -0.46370000       1.22590000
H       -2.16030000       1.32350000       0.65100000
H       -3.35050000       0.03090000       0.52910000
H       -2.15220000       0.00400000       1.83820000
H       -1.13060000      -0.65130000      -2.05220000
H       -0.84320000      -2.56750000      -0.64510000
H       -1.13510000      -2.32500000       1.06240000
H       -3.61380000      -2.15170000       0.57830000
H       -2.82480000      -3.18020000      -2.20080000
H       -4.46970000      -3.08760000      -1.56410000
H       -3.54450000      -1.59980000      -1.86580000
H       -3.87830000      -4.61680000       0.33880000
H       -2.19920000      -4.75440000      -0.19680000
H       -2.55870000      -4.22250000       1.45200000
