21
Properties=species:S:1:pos:R:3 gdb_119896=T pbc="F F F"
O       -0.09680000       1.48420000      -0.12300000
C        0.03140000       0.07240000      -0.05830000
C       -1.37550000      -0.51250000       0.09350000
C       -1.39770000      -2.02030000       0.08080000
C       -1.53710000      -2.74830000       1.19010000
C       -1.58920000      -4.25180000       1.18650000
O       -1.72340000      -4.81040000      -0.10560000
C       -0.87250000      -4.18880000      -1.05180000
C       -1.25470000      -2.72160000      -1.25330000
H        0.78370000       1.86380000      -0.19520000
H        0.51260000      -0.32390000      -0.96670000
H        0.64790000      -0.23850000       0.79960000
H       -1.80440000      -0.13140000       1.02580000
H       -1.98930000      -0.11720000      -0.72670000
H       -1.62610000      -2.26720000       2.16210000
H       -0.69170000      -4.65770000       1.69160000
H       -2.45530000      -4.60450000       1.75980000
H        0.17910000      -4.25750000      -0.72540000
H       -0.97540000      -4.76050000      -1.97850000
H       -2.19900000      -2.65220000      -1.81110000
H       -0.49710000      -2.22640000      -1.87400000
