17
Properties=species:S:1:pos:R:3 gdb_19595=T pbc="F F F"
O       -0.09660000       1.49780000       0.00660000
C        0.04400000       0.09070000       0.04240000
C       -1.32990000      -0.60610000      -0.11560000
C       -1.20470000      -0.24360000      -1.64330000
C        0.28910000      -0.58160000      -1.34850000
N        0.18590000      -2.06410000      -1.16700000
C        0.38420000      -2.57910000       0.20330000
C       -0.96060000      -2.09140000      -0.20280000
H        0.77630000       1.87580000      -0.14080000
H        0.67800000      -0.19080000       0.88680000
H       -2.18540000      -0.31860000       0.49440000
H       -1.71020000      -0.89730000      -2.35660000
H       -1.38690000       0.80810000      -1.85180000
H        1.11210000      -0.29100000      -2.00290000
H        0.53950000      -3.65490000       0.21750000
H        0.99360000      -2.04980000       0.92530000
H       -1.75720000      -2.80410000      -0.40190000
