12
Properties=species:S:1:pos:R:3 gdb_23871=T pbc="F F F"
N       -0.04290000       1.49580000       0.09100000
C       -0.03330000       0.03850000      -0.00080000
C       -1.38310000      -0.50470000       0.12780000
C       -2.49710000      -0.93990000       0.22320000
C        0.62380000      -0.47830000      -1.29730000
F        1.87930000      -0.00270000      -1.38480000
F        0.69040000      -1.81150000      -1.32740000
F       -0.03970000      -0.06600000      -2.38380000
H        0.90050000       1.84630000      -0.04810000
H       -0.61990000       1.87680000      -0.65320000
H        0.59180000      -0.35110000       0.81320000
H       -3.48150000      -1.32950000       0.31130000
