16
Properties=species:S:1:pos:R:3 gdb_41602=T pbc="F F F"
C       -0.06460000       1.40110000      -0.07200000
O        1.39040000       1.48810000      -0.12510000
C        1.49620000       0.07950000       0.07780000
C       -0.01420000      -0.11710000       0.03650000
C        0.86880000      -0.64500000      -1.06810000
C        0.91530000      -0.26750000      -2.54950000
N        1.19450000      -1.54530000      -3.23280000
C        1.23290000      -2.42340000      -2.32250000
O        1.03650000      -2.06690000      -1.02480000
H       -0.44160000       1.89260000       0.83110000
H       -0.54000000       1.83790000      -0.95790000
H        2.28290000      -0.30910000       0.71420000
H       -0.66310000      -0.75900000       0.61630000
H       -0.03110000       0.14660000      -2.91730000
H        1.69920000       0.46530000      -2.76300000
H        1.40960000      -3.48280000      -2.46840000
