20
Properties=species:S:1:pos:R:3 gdb_85542=T pbc="F F F"
C        0.29980000       1.22970000      -0.29480000
N        0.00550000      -0.14060000       0.07940000
C       -1.38320000      -0.53090000      -0.11100000
C       -1.58200000      -2.03520000       0.11480000
O       -2.65620000      -2.55880000      -0.05240000
C       -0.33330000      -2.78340000       0.57170000
C        0.36660000      -1.98280000       1.66350000
C        1.72800000      -1.36080000       1.45620000
C        0.48740000      -0.50620000       1.38260000
H        1.37600000       1.40810000      -0.20910000
H        0.00490000       1.40460000      -1.33460000
H       -0.22030000       1.97540000       0.33540000
H       -2.09440000       0.00570000       0.54690000
H       -1.68920000      -0.30930000      -1.14020000
H       -0.62370000      -3.78290000       0.90130000
H        0.32070000      -2.89290000      -0.30150000
H        0.10750000      -2.26510000       2.67830000
H        2.37340000      -1.25800000       2.32160000
H        2.23810000      -1.56140000       0.52030000
H        0.29290000       0.19630000       2.19890000
