16
Properties=species:S:1:pos:R:3 gdb_133112=T pbc="F F F"
C        0.02400000       1.43910000       0.11310000
N       -0.12940000       0.01460000      -0.10050000
C        0.55160000      -0.64170000      -1.10490000
C        1.17820000      -0.01060000      -2.19110000
N        1.79610000      -0.65690000      -3.18300000
C        1.83320000      -1.98690000      -3.14190000
C        1.26100000      -2.73250000      -2.10890000
C        0.62620000      -2.04200000      -1.10190000
F        0.06220000      -2.69300000      -0.07140000
H        1.07180000       1.74750000       0.25010000
H       -0.38630000       2.00390000      -0.73130000
H       -0.54000000       1.72190000       1.00400000
H       -0.28240000      -0.54260000       0.72440000
H        1.17290000       1.07330000      -2.25630000
H        2.34190000      -2.48870000      -3.96000000
H        1.30610000      -3.81460000      -2.08380000
