22
Properties=species:S:1:pos:R:3 gdb_104033=T pbc="F F F"
C       -0.30410000       1.39100000       0.05000000
C       -0.20690000      -0.10050000      -0.29150000
C        0.85710000      -0.45980000      -1.34930000
O        2.14590000      -0.03620000      -0.89050000
C        0.96540000      -1.99140000      -1.57930000
C        0.42890000      -2.25440000      -2.97360000
C       -0.93990000      -1.78290000      -3.30450000
N        0.22920000      -0.98750000      -3.70560000
C        0.55710000       0.10680000      -2.78000000
H        0.62460000       1.76290000       0.49640000
H       -0.52860000       2.00450000      -0.82910000
H       -1.09770000       1.56650000       0.78200000
H        0.03040000      -0.66030000       0.62090000
H       -1.18580000      -0.45830000      -0.63100000
H        2.12820000       0.92090000      -0.78950000
H        2.02230000      -2.26390000      -1.52120000
H        0.43440000      -2.56020000      -0.80980000
H        0.86160000      -3.07390000      -3.54090000
H       -1.48420000      -2.23030000      -4.13170000
H       -1.57430000      -1.42060000      -2.49880000
H       -0.24650000       0.85060000      -2.78730000
H        1.46830000       0.59080000      -3.14630000
