14
Properties=species:S:1:pos:R:3 gdb_3208=T pbc="F F F"
C       -0.10170000       1.33220000      -0.19590000
N       -0.03440000      -0.03190000       0.28430000
C       -1.06140000      -1.07110000       0.18560000
C       -0.97230000      -1.79600000      -1.12290000
C        0.02330000      -2.11160000      -0.00370000
C        1.00580000      -0.94420000       0.06760000
O        2.18970000      -0.78380000      -0.04620000
H        0.92070000       1.71380000      -0.25380000
H       -0.56120000       1.40080000      -1.19190000
H       -0.67080000       1.96220000       0.49490000
H       -1.90510000      -1.09340000       0.86280000
H       -1.71210000      -2.57070000      -1.30530000
H       -0.63870000      -1.27160000      -2.01370000
H        0.12260000      -3.09210000       0.43820000
