17
Properties=species:S:1:pos:R:3 gdb_98454=T pbc="F F F"
C       -0.08910000       1.35470000       0.01270000
O        0.03810000      -0.07580000      -0.00740000
C        0.56270000      -0.60030000      -1.13610000
O        0.90870000       0.05610000      -2.08290000
C        0.60890000      -2.11930000      -1.06910000
O        0.47010000      -2.63120000       0.22510000
C       -0.27050000      -2.78900000      -2.17570000
O        0.88880000      -3.26350000      -2.87520000
C        1.77610000      -2.75040000      -1.86470000
H        0.89270000       1.82330000      -0.08420000
H       -0.72510000       1.69010000      -0.80950000
H       -0.53910000       1.59970000       0.97420000
H        0.03080000      -1.96130000       0.76130000
H       -0.88270000      -3.60080000      -1.76460000
H       -0.88240000      -2.12250000      -2.79360000
H        2.50710000      -2.04810000      -2.27580000
H        2.27440000      -3.54450000      -1.29700000
