16
Properties=species:S:1:pos:R:3 gdb_12621=T pbc="F F F"
C       -0.01110000       1.57740000       0.05470000
C        0.04500000       0.04680000      -0.03560000
C        0.84070000      -0.51780000      -1.23910000
O        1.29340000       0.53290000      -2.08580000
C        1.98610000      -1.28110000      -0.60100000
C        1.92550000      -1.30730000       0.73280000
C        0.74410000      -0.54430000       1.20400000
O        0.38580000      -0.39290000       2.34830000
H        0.99180000       2.01110000       0.04870000
H       -0.56160000       2.00040000      -0.78810000
H       -0.50780000       1.85800000       0.98690000
H       -0.98030000      -0.33870000      -0.04480000
H        0.21270000      -1.21340000      -1.81760000
H        1.72310000       0.13800000      -2.85120000
H        2.75680000      -1.74770000      -1.20790000
H        2.61450000      -1.79040000       1.41430000
