19
Properties=species:S:1:pos:R:3 gdb_12378=T pbc="F F F"
C       -0.02380000       1.57220000      -0.02720000
C        0.09590000       0.04820000       0.01160000
C        0.73710000      -0.52820000      -1.26350000
C        0.88760000      -2.04440000      -1.13930000
C        1.71030000      -2.36390000       0.09960000
O        1.18570000      -1.76030000       1.29090000
C        0.80340000      -0.44410000       1.26480000
N        0.93620000       0.28820000       2.28910000
H        0.96450000       2.03900000      -0.08320000
H       -0.60030000       1.88140000      -0.90530000
H       -0.51310000       1.94970000       0.87130000
H       -0.91730000      -0.37930000       0.07570000
H        0.12570000      -0.26100000      -2.13160000
H        1.72340000      -0.06920000      -1.41860000
H       -0.09980000      -2.51540000      -1.05820000
H        1.38240000      -2.47330000      -2.01770000
H        1.73550000      -3.43600000       0.31000000
H        2.74680000      -2.02210000      -0.03800000
H        1.40060000      -0.24080000       3.03080000
