20
Properties=species:S:1:pos:R:3 gdb_122758=T pbc="F F F"
C        0.03180000       1.57490000       0.09970000
C        0.02790000       0.04490000       0.04700000
C        0.74360000      -0.59210000       1.24340000
C        0.73150000      -2.11020000       1.17710000
O        1.42390000      -2.60020000       2.33880000
C        1.51840000      -3.93410000       2.45820000
N        1.02700000      -4.73540000       1.59820000
C        2.22760000      -4.31360000       3.65140000
C        2.81290000      -4.68240000       4.63450000
H        1.05450000       1.96760000       0.10680000
H       -0.48440000       2.00430000      -0.76420000
H       -0.46810000       1.94050000       1.00330000
H       -1.00740000      -0.31810000       0.00600000
H        0.50370000      -0.29130000      -0.88360000
H        1.78310000      -0.24460000       1.28690000
H        0.26820000      -0.27150000       2.17860000
H       -0.28740000      -2.51340000       1.17160000
H        1.23170000      -2.48640000       0.27770000
H        1.20480000      -5.69940000       1.87030000
H        3.33130000      -5.00450000       5.50430000
