18
Properties=species:S:1:pos:R:3 gdb_93942=T pbc="F F F"
N       -0.34510000       0.39760000       0.31240000
H       -1.16030000      -0.09520000       0.74800000
H        0.47260000      -0.21140000       0.28810000
H       -0.58210000       0.69530000      -0.63420000
C       -0.19490000       1.56730000       1.29550000
C       -1.65310000       1.92050000       1.62350000
O       -2.06640000       0.69090000       2.20930000
C       -1.04320000       0.41110000       3.24600000
C        0.27450000       0.96120000       2.61870000
C       -1.40330000       1.19270000       4.57290000
O       -1.75440000       0.49220000       5.52240000
O       -1.26820000       2.43700000       4.44000000
H        0.43300000       2.33190000       0.84020000
H       -1.67710000       2.72530000       2.36690000
H       -2.28320000       2.13300000       0.75290000
H       -1.06530000      -0.66910000       3.39500000
H        1.06410000       0.21190000       2.48740000
H        0.63940000       1.77060000       3.25420000
