21
Properties=species:S:1:pos:R:3 gdb_59143=T pbc="F F F"
C        0.05560000       1.41450000      -0.22510000
C        0.17900000      -0.06420000       0.16920000
C        0.71280000      -0.21450000       1.60090000
C       -1.18740000      -0.73820000       0.05970000
C       -1.96860000      -1.20570000      -1.14450000
C       -1.17910000      -2.08930000      -2.16010000
O        0.19120000      -2.21780000      -1.75700000
C       -0.80100000      -3.02630000      -1.11020000
C       -1.56910000      -2.19560000      -0.03520000
H        1.02510000       1.91930000      -0.15860000
H       -0.31140000       1.52130000      -1.25080000
H       -0.64060000       1.94600000       0.43620000
H        0.87590000      -0.54710000      -0.51250000
H        0.04040000       0.25830000       2.32810000
H        0.81420000      -1.26900000       1.87680000
H        1.69530000       0.25790000       1.70370000
H       -1.89010000      -0.25420000       0.74470000
H       -2.96400000      -0.84240000      -1.36790000
H       -1.40930000      -2.23120000      -3.20910000
H       -0.65530000      -4.09970000      -1.11520000
H       -2.22580000      -2.67200000       0.68230000
