15
Properties=species:S:1:pos:R:3 gdb_72317=T pbc="F F F"
N       -0.14190000       1.47680000      -0.61470000
C       -0.08470000       0.16560000      -0.38820000
C        1.00890000      -0.74210000      -0.89780000
N        0.58570000      -2.12370000      -0.68270000
C       -0.58560000      -2.04260000      -0.17640000
O       -1.25900000      -2.79690000       0.66620000
C       -1.24880000      -1.42260000       1.40970000
C       -1.18970000      -0.59410000       0.10720000
O       -2.43000000      -0.03900000      -0.23630000
H        0.54440000       1.95190000      -1.17720000
H       -1.01440000       1.95000000      -0.42970000
H        1.20760000      -0.51670000      -1.95680000
H        1.95870000      -0.58420000      -0.36800000
H       -0.34020000      -1.41730000       2.02560000
H       -3.00160000      -0.27620000       0.50930000
