16
Properties=species:S:1:pos:R:3 gdb_125169=T pbc="F F F"
C       -0.01730000       1.52620000       0.11440000
C       -0.00800000       0.04240000      -0.05060000
C        0.01550000      -0.74600000      -1.17970000
C        0.04210000      -0.83810000      -2.67830000
C        0.05220000      -2.34760000      -2.88980000
C        0.03420000      -2.98130000      -1.71090000
N        0.01210000      -2.01450000      -0.68880000
N       -0.01200000      -2.05180000       0.64950000
N       -0.02270000      -0.79860000       1.03520000
H        0.87580000       1.99060000      -0.31840000
H       -0.88910000       1.98480000      -0.36540000
H       -0.04610000       1.76810000       1.17880000
H       -0.83060000      -0.36740000      -3.14870000
H        0.92660000      -0.36000000      -3.11800000
H        0.07110000      -2.82150000      -3.86000000
H        0.03410000      -4.03050000      -1.46090000
