18
Properties=species:S:1:pos:R:3 gdb_22431=T pbc="F F F"
O       -0.13540000       1.42540000       0.18080000
N        0.08200000       0.03490000       0.15450000
C       -1.00090000      -0.59440000      -0.01980000
C       -2.49060000      -0.20850000      -0.25320000
C       -2.59260000      -1.64760000      -0.82390000
C       -3.05180000      -3.14140000      -0.83670000
C       -1.50590000      -3.12640000      -1.23140000
C       -1.83380000      -1.94250000      -2.15920000
C       -1.32490000      -2.09300000      -0.06420000
H        0.75610000       1.76660000       0.31080000
H       -3.01060000      -0.05840000       0.69890000
H       -2.70000000       0.63280000      -0.91760000
H       -3.30380000      -3.57990000       0.13200000
H       -3.74280000      -3.46690000      -1.62010000
H       -0.90030000      -4.00680000      -1.46160000
H       -2.45930000      -2.15180000      -3.03060000
H       -1.00560000      -1.27610000      -2.41050000
H       -1.48220000      -2.49160000       0.94350000
