19
Properties=species:S:1:pos:R:3 gdb_53649=T pbc="F F F"
C       -0.01740000       1.52170000      -0.02170000
C       -0.00110000       0.06580000      -0.02870000
C        0.02200000      -1.13780000      -0.03760000
C        0.01380000      -2.59550000      -0.04200000
C       -1.40600000      -3.17850000       0.09610000
C       -1.41640000      -4.72700000       0.06070000
N       -0.69770000      -5.41830000       1.13370000
C       -2.81200000      -5.19910000       0.04620000
N       -3.91810000      -5.53220000       0.04050000
H        0.58680000       1.92340000       0.79920000
H        0.38210000       1.92870000      -0.95710000
H       -1.03600000       1.90690000       0.09800000
H        0.46870000      -2.96710000      -0.97120000
H        0.64540000      -2.96660000       0.77590000
H       -1.85740000      -2.83750000       1.03420000
H       -2.03460000      -2.79640000      -0.71470000
H       -0.96410000      -5.05370000      -0.88550000
H        0.29480000      -5.21950000       1.07060000
H       -1.01740000      -5.09050000       2.04080000
