20
Properties=species:S:1:pos:R:3 gdb_81625=T pbc="F F F"
C       -0.09490000       1.51570000       0.02830000
N       -0.01770000       0.05750000      -0.03340000
C       -1.17030000      -0.79720000       0.44680000
C       -0.16110000      -1.97700000       0.38450000
C        0.53630000      -0.78720000       1.10080000
C       -0.76390000      -0.63490000       1.95720000
C       -1.04300000       0.58310000       2.84570000
C       -0.82420000       0.24440000       4.30840000
O       -0.16610000       0.89710000       5.07500000
H       -0.84320000       1.93970000       0.70840000
H        0.88550000       1.92040000       0.30260000
H       -0.32720000       1.88360000      -0.97770000
H       -2.16500000      -0.73330000       0.00000000
H       -0.38140000      -2.86320000       0.98100000
H        0.21820000      -2.20030000      -0.61090000
H        1.57670000      -0.70590000       1.42200000
H       -1.00520000      -1.53720000       2.53600000
H       -0.43260000       1.45540000       2.62010000
H       -2.10050000       0.87330000       2.74870000
H       -1.33690000      -0.68920000       4.64380000
