16
Properties=species:S:1:pos:R:3 gdb_14508=T pbc="F F F"
O        0.03070000       1.39530000      -0.00540000
C        0.01820000       0.00490000      -0.00850000
C        1.01080000      -0.49010000      -1.03000000
O        1.66300000       0.28940000      -1.69040000
C       -0.04320000      -0.70930000       1.39820000
C       -1.48260000      -0.11880000       1.52470000
C       -1.39480000      -0.69480000       0.07660000
C       -0.70260000      -1.93500000       0.70700000
H        0.68630000       1.64770000      -0.67580000
H        1.13180000      -1.57770000      -1.16500000
H        0.74600000      -0.70950000       2.15100000
H       -2.15340000      -0.64980000       2.20490000
H       -1.56590000       0.96120000       1.62180000
H       -2.16500000      -0.67820000      -0.69560000
H       -0.09340000      -2.58310000       0.07690000
H       -1.34390000      -2.53400000       1.35630000
