21
Properties=species:S:1:pos:R:3 gdb_59085=T pbc="F F F"
C       -0.00100000       1.47320000      -0.28710000
C        0.08300000      -0.00500000       0.12430000
C        0.73900000      -0.16950000       1.50200000
C       -1.31030000      -0.61750000       0.10750000
C       -1.92380000      -1.16100000      -1.12810000
O       -1.14050000      -1.12210000      -2.28170000
C       -1.56560000      -2.13600000       0.00640000
C       -0.45540000      -3.09580000      -0.16380000
O       -0.43120000      -4.19000000       0.35250000
H        0.99250000       1.93310000      -0.28690000
H       -0.42470000       1.57680000      -1.28990000
H       -0.62960000       2.04130000       0.40940000
H        0.70040000      -0.51620000      -0.62030000
H        0.82840000      -1.22370000       1.78230000
H        1.74220000       0.26870000       1.51000000
H        0.15110000       0.33260000       2.27950000
H       -2.00320000      -0.12270000       0.78530000
H       -2.98920000      -1.00120000      -1.29180000
H       -1.40570000      -1.84790000      -2.85650000
H       -2.38640000      -2.53290000       0.59480000
H        0.37280000      -2.76030000      -0.82160000
