19
Properties=species:S:1:pos:R:3 gdb_100483=T pbc="F F F"
C       -0.36120000       1.64700000      -0.30570000
C        0.00720000       0.18180000      -0.00320000
C       -1.24640000      -0.68150000       0.22040000
O       -1.93390000      -0.15430000       1.34380000
C        0.83070000      -0.40230000      -1.06020000
C        1.48600000      -0.88590000      -1.94620000
C        2.29740000      -1.46920000      -3.01710000
C        1.78380000      -2.74860000      -3.51190000
C        1.37340000      -3.79810000      -3.92600000
H        0.53740000       2.26330000      -0.39040000
H       -0.91070000       1.71660000      -1.24990000
H       -0.99040000       2.04090000       0.49490000
H        0.57230000       0.15700000       0.93870000
H       -1.86910000      -0.65440000      -0.68710000
H       -0.94250000      -1.72490000       0.38680000
H       -2.74730000      -0.65270000       1.46100000
H        2.36630000      -0.76140000      -3.85500000
H        3.32880000      -1.60810000      -2.66430000
H        1.00720000      -4.72610000      -4.28930000
