16
Properties=species:S:1:pos:R:3 gdb_11073=T pbc="F F F"
C        0.05140000       1.54950000      -0.02620000
C        0.07040000       0.06320000       0.06420000
O        0.58180000      -0.70090000      -1.04460000
C        1.22400000      -1.64900000      -0.15010000
C        0.58670000      -0.96990000       1.04820000
O        1.13990000      -0.78600000       2.30660000
C       -0.90900000      -0.79970000       0.83250000
O       -1.56730000      -0.18530000       1.89950000
H        1.06030000       1.96640000      -0.09890000
H       -0.51240000       1.85780000      -0.91380000
H       -0.44730000       1.96190000       0.85400000
H        0.94420000      -2.68630000      -0.37020000
H        2.31520000      -1.53880000      -0.17810000
H        1.08070000      -1.62030000       2.78990000
H       -1.51000000      -1.54670000       0.31410000
H       -0.94930000      -0.17000000       2.64290000
