16
Properties=species:S:1:pos:R:3 gdb_43959=T pbc="F F F"
N        0.03790000       1.22350000      -0.01000000
C       -0.02360000      -0.02480000       0.05640000
O        1.00330000      -0.97260000       0.17920000
C        0.03230000      -2.04020000      -0.02880000
C       -0.95120000      -2.07430000       1.07920000
C       -1.11990000      -1.04700000      -0.05070000
C       -1.91690000      -1.40400000      -1.25620000
C       -1.33980000      -2.41960000      -1.91480000
C       -0.02230000      -2.88060000      -1.28800000
H        1.00380000       1.55070000       0.04860000
H       -1.68170000      -2.87580000       1.06940000
H       -0.64140000      -1.73340000       2.06100000
H       -2.83880000      -0.91480000      -1.54560000
H       -1.74980000      -2.89760000      -2.79920000
H        0.83430000      -2.65960000      -1.93610000
H       -0.00290000      -3.95850000      -1.09230000
