11
Properties=species:S:1:pos:R:3 gdb_133315=T pbc="F F F"
N        0.02170000       1.36570000       0.12430000
C       -0.02920000       0.01200000       0.04470000
C       -1.17180000      -0.72530000       0.02270000
F       -2.35690000      -0.11870000       0.03270000
C       -1.13140000      -2.15730000      -0.01550000
O       -2.03980000      -2.93650000      -0.03890000
O        0.19040000      -2.65590000      -0.02770000
N        1.33230000      -1.85470000      -0.01910000
N        1.21190000      -0.61900000       0.01650000
H        0.90360000       1.80410000      -0.08550000
H       -0.81790000       1.88970000      -0.05640000
