16
Properties=species:S:1:pos:R:3 gdb_7906=T pbc="F F F"
C       -0.10240000       1.55780000       0.01890000
C        0.05470000       0.03720000      -0.00150000
C        0.81820000      -0.50260000      -1.23540000
C        1.90640000      -1.36620000      -0.62380000
O        2.71090000      -2.09440000      -1.15250000
C        1.77270000      -1.15070000       0.86140000
N        2.69410000      -1.72200000       1.67820000
N        0.78090000      -0.41350000       1.20350000
H        0.87700000       2.04630000      -0.02990000
H       -0.70170000       1.90010000      -0.83110000
H       -0.59230000       1.87510000       0.94310000
H       -0.94750000      -0.40950000       0.03950000
H        0.20410000      -1.08520000      -1.92730000
H        1.28570000       0.29980000      -1.81720000
H        3.26500000      -2.44170000       1.26310000
H        2.49300000      -1.79020000       2.66190000
