23
Properties=species:S:1:pos:R:3 gdb_122332=T pbc="F F F"
O       -0.09540000       1.44520000       0.39410000
C       -0.01140000       0.07450000       0.03330000
C       -1.40770000      -0.52470000       0.13290000
C       -1.43530000      -2.02190000      -0.22510000
C       -2.79940000      -2.63930000      -0.11950000
C       -3.52820000      -3.14780000      -1.11570000
C       -4.83490000      -3.73980000      -0.64700000
C       -4.94790000      -3.21810000       0.80910000
C       -3.50770000      -2.81580000       1.21200000
H        0.78320000       1.82920000       0.32320000
H        0.37290000      -0.04490000      -0.99340000
H        0.67520000      -0.47220000       0.70130000
H       -1.77700000      -0.36720000       1.15250000
H       -2.07870000       0.02890000      -0.53360000
H       -1.05160000      -2.15930000      -1.24340000
H       -0.74250000      -2.55560000       0.44320000
H       -3.21010000      -3.18140000      -2.15320000
H       -5.68940000      -3.44090000      -1.26530000
H       -4.80050000      -4.83850000      -0.68710000
H       -5.58870000      -2.33080000       0.82590000
H       -5.39190000      -3.94860000       1.49020000
H       -3.01000000      -3.60230000       1.79920000
H       -3.48610000      -1.91510000       1.83560000
