23
Properties=species:S:1:pos:R:3 gdb_75541=T pbc="F F F"
C       -0.04860000       1.54280000      -0.00390000
C       -0.01560000       0.03590000      -0.01670000
C       -0.02190000      -0.64850000      -1.16270000
C        0.04560000      -2.14660000      -1.23960000
O        0.35440000      -2.75250000       0.00020000
C       -0.37450000      -2.17110000       1.06350000
C        0.03960000      -0.70860000       1.31890000
C        1.47670000      -0.67820000       1.88240000
C       -0.93820000      -0.10690000       2.34500000
H        0.78990000       1.96160000       0.56580000
H        0.00540000       1.94310000      -1.01980000
H       -0.96390000       1.92740000       0.46090000
H       -0.08030000      -0.12520000      -2.11510000
H       -0.90740000      -2.54670000      -1.63600000
H        0.83080000      -2.46100000      -1.93820000
H       -1.45730000      -2.21910000       0.85800000
H       -0.17020000      -2.78590000       1.94650000
H        2.15070000      -1.23620000       1.22790000
H        1.85390000       0.34500000       1.97470000
H        1.50770000      -1.13390000       2.87890000
H       -0.95840000      -0.72040000       3.25290000
H       -0.64270000       0.90370000       2.64090000
H       -1.95840000      -0.05900000       1.94910000
