21
Properties=species:S:1:pos:R:3 gdb_118797=T pbc="F F F"
C       -0.08980000       1.58590000       0.13280000
C       -0.13150000       0.06570000       0.30800000
C       -1.28350000      -0.58360000      -0.47360000
C       -1.39250000      -2.08010000      -0.24530000
C       -0.30200000      -2.94670000      -0.84020000
O       -1.79630000      -2.45900000       1.07910000
C       -2.71830000      -2.70680000       0.00320000
C       -3.95690000      -1.97570000      -0.00120000
C       -5.01220000      -1.39960000      -0.02160000
H        0.73360000       2.02890000       0.70150000
H        0.04570000       1.86190000      -0.91920000
H       -1.02080000       2.04890000       0.47770000
H        0.82790000      -0.36120000      -0.00900000
H       -0.24760000      -0.18490000       1.36870000
H       -2.22760000      -0.11320000      -0.18200000
H       -1.15670000      -0.39870000      -1.54870000
H        0.67700000      -2.66680000      -0.43920000
H       -0.47240000      -4.00020000      -0.60550000
H       -0.26590000      -2.83030000      -1.92840000
H       -2.82150000      -3.76250000      -0.25040000
H       -5.94150000      -0.88530000      -0.03400000
