20
Properties=species:S:1:pos:R:3 gdb_80891=T pbc="F F F"
C       -0.09450000       1.55190000      -0.03000000
C       -0.07200000       0.03120000      -0.02140000
C        1.15880000      -0.60590000      -0.71190000
O        1.94510000      -0.29830000       0.49260000
C        0.67400000      -0.61920000       1.18590000
C        0.59360000      -0.14830000       2.61000000
C        0.59910000      -2.14310000       0.88970000
N       -0.40240000      -2.53980000      -0.13010000
C        0.96450000      -2.13020000      -0.54040000
H        0.88620000       1.96510000       0.21750000
H       -0.38570000       1.92330000      -1.01860000
H       -0.82560000       1.93640000       0.68960000
H       -1.04390000      -0.39170000      -0.27220000
H        1.60070000      -0.22690000      -1.63350000
H        0.72550000       0.93440000       2.67760000
H       -0.37910000      -0.40890000       3.03980000
H        1.37240000      -0.62550000       3.21460000
H        0.97010000      -2.86370000       1.60960000
H       -0.44930000      -3.55790000      -0.15260000
H        1.63760000      -2.84160000      -1.00310000
