18
Properties=species:S:1:pos:R:3 gdb_30312=T pbc="F F F"
C       -0.05050000       1.58720000      -0.06810000
C        0.00370000       0.06220000       0.07940000
C        0.80630000      -0.62490000      -1.08520000
O        1.57630000      -1.73050000      -0.55270000
C        1.62330000      -1.49800000       0.79590000
C        0.80460000      -0.49160000       1.21610000
N        0.87730000      -0.44530000       2.58780000
C        1.77270000      -1.40310000       3.00870000
C        2.25900000      -2.09390000       1.90900000
H        0.95830000       2.01210000      -0.08340000
H       -0.55990000       1.87540000      -0.99430000
H       -0.59910000       2.04490000       0.76180000
H       -1.02980000      -0.31820000       0.09790000
H        0.16500000      -1.01510000      -1.87870000
H        1.50650000       0.10210000      -1.51890000
H        0.42930000       0.22230000       3.18950000
H        2.01590000      -1.50580000       4.05410000
H        2.96680000      -2.90650000       1.92940000
