18
Properties=species:S:1:pos:R:3 gdb_11701=T pbc="F F F"
C       -0.13790000       1.56840000       0.06320000
C        0.07680000       0.06020000       0.02550000
C        1.16850000      -0.53410000      -0.93000000
C        1.80970000      -1.26540000       0.26680000
C        2.21650000      -0.24510000       1.30730000
C        0.76960000      -0.62030000       1.21620000
C        2.31740000      -2.59360000       0.24260000
C        2.74010000      -3.72050000       0.19830000
H        0.79360000       2.10520000       0.27030000
H       -0.52360000       1.93180000      -0.89570000
H       -0.86060000       1.84380000       0.83910000
H       -0.87760000      -0.43690000      -0.17290000
H        0.75570000      -1.21440000      -1.67640000
H        1.82250000       0.18720000      -1.43140000
H        2.74670000      -0.65290000       2.16090000
H        2.56950000       0.73220000       0.98610000
H        0.26090000      -1.09320000       2.04790000
H        3.11640000      -4.71230000       0.16440000
