15
Properties=species:S:1:pos:R:3 gdb_72015=T pbc="F F F"
O       -0.04600000       1.42660000      -0.10460000
C        0.02000000       0.04940000      -0.10330000
C        0.46620000      -0.85440000      -1.27080000
C       -0.27620000      -1.91630000      -0.43420000
O        0.58160000      -2.05650000       0.72450000
C        0.42270000      -0.72720000       1.23820000
C       -1.08940000      -0.72430000       1.56620000
O       -1.77070000      -0.53140000       2.52600000
C       -1.30100000      -0.82310000       0.06110000
H        0.83670000       1.78380000       0.04600000
H       -0.06960000      -0.58870000      -2.18460000
H        1.52860000      -1.02210000      -1.46330000
H       -0.58460000      -2.88650000      -0.81380000
H        1.22220000      -0.43790000       1.91690000
H       -2.22810000      -0.65200000      -0.47740000
