11
Properties=species:S:1:pos:R:3 gdb_132483=T pbc="F F F"
F        0.11080000       0.10200000       0.00210000
C       -0.06270000       1.39590000       0.01120000
N       -1.21940000       1.90870000       0.02990000
C       -1.24750000       3.29950000       0.03740000
C       -0.12540000       4.03950000       0.02560000
F       -0.14820000       5.36240000       0.03260000
C        1.18960000       3.42080000       0.00410000
N        2.29070000       4.02890000      -0.00800000
O        1.12360000       2.00720000      -0.00220000
H       -2.22530000       3.76540000       0.05330000
H        3.08210000       3.38680000      -0.02230000
