20
Properties=species:S:1:pos:R:3 gdb_111907=T pbc="F F F"
C       -0.01830000       1.56200000      -0.02790000
C        0.03820000       0.03400000      -0.02380000
C        0.70130000      -0.53420000       1.23900000
N       -0.07880000      -0.25560000       2.45720000
C       -0.31550000      -1.38180000       3.01250000
C       -1.08550000      -1.58040000       4.27640000
N        0.22070000      -2.48640000       2.34350000
C        0.86550000      -2.05510000       1.18700000
N        1.45640000      -2.71100000       0.27340000
H        0.98870000       1.99360000      -0.00420000
H       -0.51810000       1.93200000      -0.92840000
H       -0.56130000       1.93240000       0.84550000
H       -0.97420000      -0.38110000      -0.10040000
H        0.60030000      -0.34250000      -0.88490000
H        1.69320000      -0.07460000       1.34740000
H       -1.42550000      -0.61250000       4.64420000
H       -1.95490000      -2.22640000       4.10920000
H       -0.46340000      -2.05700000       5.04230000
H        0.08920000      -3.44920000       2.60550000
H        1.43770000      -3.71730000       0.44790000
