23
Properties=species:S:1:pos:R:3 gdb_76692=T pbc="F F F"
C       -0.26980000       0.98910000      -1.71400000
C       -0.01910000      -0.21220000      -0.82570000
C        1.36930000      -0.63940000      -0.39150000
C        2.62820000       0.09800000      -0.80020000
C        0.39040000      -0.10010000       0.63340000
C        0.58200000       1.22420000       1.34330000
C       -0.74450000       1.76090000       1.92820000
C       -0.58140000       3.01630000       2.65060000
C       -0.41540000       4.05180000       3.23860000
H        0.39070000       1.83050000      -1.49170000
H       -0.12060000       0.72980000      -2.76820000
H       -1.30040000       1.34640000      -1.60810000
H       -0.69730000      -1.03520000      -1.03990000
H        1.51630000      -1.71620000      -0.34530000
H        2.48800000       1.17910000      -0.86530000
H        3.43630000      -0.08300000      -0.08250000
H        2.97690000      -0.24490000      -1.78080000
H       -0.04510000      -0.85640000       1.28470000
H        1.30300000       1.10690000       2.16130000
H        1.00040000       1.98390000       0.67810000
H       -1.47100000       1.89410000       1.11680000
H       -1.17650000       1.00650000       2.59900000
H       -0.28250000       4.96600000       3.76160000
