24
Properties=species:S:1:pos:R:3 gdb_57187=T pbc="F F F"
C        0.34660000       1.75920000      -0.02640000
C        0.15450000       0.23290000      -0.02880000
C        0.76470000      -0.31260000      -1.32580000
N       -0.09570000      -0.99940000      -2.13490000
O        1.92670000      -0.12600000      -1.64200000
C        0.72560000      -0.50280000       1.23460000
C       -0.11690000      -0.11480000       2.46550000
C        0.60570000      -2.02700000       1.03370000
C        2.20090000      -0.14410000       1.49390000
H        1.40100000       2.01140000      -0.15390000
H       -0.20420000       2.21230000      -0.85690000
H       -0.01820000       2.21180000       0.89870000
H       -0.92390000       0.02370000      -0.04200000
H       -1.02380000      -1.24690000      -1.84190000
H        0.27770000      -1.42390000      -2.96890000
H       -1.17340000      -0.37160000       2.32580000
H        0.24060000      -0.65090000       3.35120000
H       -0.05590000       0.95450000       2.68710000
H        1.23570000      -2.37850000       0.21130000
H        0.91920000      -2.55600000       1.93970000
H       -0.42840000      -2.32410000       0.82120000
H        2.31610000       0.91160000       1.75770000
H        2.58640000      -0.73500000       2.33210000
H        2.81530000      -0.34010000       0.61310000
