17
Properties=species:S:1:pos:R:3 gdb_108389=T pbc="F F F"
C       -0.29930000       1.44410000       0.12170000
N        0.25090000       0.10390000      -0.08190000
C        0.80820000      -0.49390000       1.06850000
C        2.28560000      -0.41190000       1.46980000
O        2.25310000      -1.79040000       1.94920000
C        0.90650000      -1.91300000       1.53440000
C        0.00060000      -0.96690000       2.31260000
C        0.29360000      -0.55160000       3.65260000
N        0.54060000      -0.18810000       4.72350000
H        0.49990000       2.12080000       0.43950000
H       -0.69530000       1.81650000      -0.82620000
H       -1.09710000       1.48560000       0.88010000
H       -0.42510000      -0.50550000      -0.52590000
H        2.93800000      -0.32480000       0.59680000
H        2.57680000       0.29130000       2.25490000
H        0.56830000      -2.86250000       1.13330000
H       -1.05550000      -1.09400000       2.09040000
