15
Properties=species:S:1:pos:R:3 gdb_123618=T pbc="F F F"
C        0.06190000       1.48220000      -0.02220000
C        1.32830000       0.69120000       0.03820000
N       -0.01310000       0.02210000      -0.02570000
C       -0.18550000      -0.60770000      -1.37540000
C        1.08830000      -0.26730000      -2.09950000
C        1.93440000       0.42750000      -1.27830000
N        3.02800000       0.63950000      -2.03180000
N        2.85830000       0.09720000      -3.27410000
N        1.66980000      -0.44620000      -3.30920000
H       -0.32430000       1.95130000       0.87910000
H       -0.13730000       2.02260000      -0.94570000
H        1.89080000       0.58970000       0.96090000
H       -0.32350000      -1.68560000      -1.24030000
H       -1.08960000      -0.21500000      -1.85160000
H        3.89370000       1.11030000      -1.82410000
