17
Properties=species:S:1:pos:R:3 gdb_28770=T pbc="F F F"
C       -0.02090000       1.46310000       0.08150000
C       -0.01040000      -0.02400000       0.00020000
N       -0.03150000      -0.74140000      -1.11260000
C       -0.01130000      -2.06430000      -0.73110000
C        0.02330000      -2.15220000       0.63990000
C        0.05960000      -3.00390000       1.81040000
C        0.08040000      -2.23580000       2.91560000
C        0.05870000      -0.76500000       2.54310000
N        0.02330000      -0.84200000       1.08910000
H        0.87240000       1.85020000       0.58710000
H       -0.05050000       1.86930000      -0.93010000
H       -0.89330000       1.83520000       0.63280000
H       -0.02270000      -2.85970000      -1.45990000
H        0.06810000      -4.08440000       1.78150000
H        0.10860000      -2.57210000       3.94250000
H       -0.82130000      -0.24190000       2.94020000
H        0.94830000      -0.22690000       2.89630000
