21
Properties=species:S:1:pos:R:3 gdb_40742=T pbc="F F F"
C       -0.40710000       1.33320000      -0.13710000
C        1.01790000       1.06950000       0.28030000
C        0.08510000      -0.08480000       0.00890000
C       -0.35140000      -0.96740000       1.14870000
O       -0.72290000      -0.23570000       2.34900000
C       -1.93320000      -1.01160000       2.50460000
C       -3.18680000      -0.29740000       1.95690000
C       -2.92310000      -0.93960000       0.55650000
C       -1.70540000      -1.71330000       1.13710000
H       -1.07570000       1.70910000       0.62770000
H       -0.59530000       1.71130000      -1.13600000
H        1.81500000       1.26550000      -0.42810000
H        1.27070000       1.26760000       1.31610000
H        0.26190000      -0.63910000      -0.91010000
H        0.46610000      -1.66570000       1.38840000
H       -1.98010000      -1.50560000       3.47900000
H       -4.11540000      -0.64220000       2.42100000
H       -3.14520000       0.79210000       2.02080000
H       -3.72850000      -1.59840000       0.22470000
H       -2.69000000      -0.24710000      -0.25380000
H       -1.67430000      -2.79240000       0.99150000
