14
Properties=species:S:1:pos:R:3 gdb_43036=T pbc="F F F"
O       -0.10810000       0.05550000      -0.00990000
C       -0.07930000       1.24580000       0.07590000
C       -1.12660000       2.36780000      -0.07240000
N       -0.92630000       3.12640000       1.21530000
C        0.36740000       3.54610000       0.62700000
C        0.02490000       3.19380000      -0.77320000
C        1.02350000       2.27670000       0.05040000
C        2.42130000       2.12190000      -0.11170000
C        3.60790000       1.97530000      -0.24520000
H       -2.13520000       2.17620000      -0.42460000
H       -1.53850000       3.94220000       1.18420000
H        0.99210000       4.33030000       1.03500000
H        0.20410000       3.59560000      -1.76040000
H        4.65400000       1.83650000      -0.36320000
