21
Properties=species:S:1:pos:R:3 gdb_83791=T pbc="F F F"
C       -0.09160000       1.53490000      -0.08760000
C        0.01810000       0.02610000      -0.00260000
C        1.30860000      -0.70720000      -0.27500000
O        2.46460000       0.07510000      -0.37240000
C        3.47450000      -0.30450000       0.56370000
C        3.02590000      -0.10490000       1.99940000
C        2.19450000       1.10410000       2.32840000
C        1.53710000      -0.25810000       2.24690000
C        0.69860000      -0.77070000       1.10400000
H        0.88950000       2.00060000      -0.19230000
H       -0.67870000       1.81330000      -0.96890000
H       -0.58840000       1.96100000       0.78980000
H       -0.85610000      -0.49200000      -0.38940000
H        1.31470000      -1.58180000      -0.92550000
H        3.76390000      -1.35530000       0.40150000
H        4.33990000       0.32290000       0.32680000
H        3.71790000      -0.48120000       2.74670000
H        2.29340000       1.53630000       3.31850000
H        2.02120000       1.82560000       1.54260000
H        1.25120000      -0.67590000       3.20670000
H        0.19010000      -1.69750000       1.35350000
