21
Properties=species:S:1:pos:R:3 gdb_69837=T pbc="F F F"
O       -0.13160000       1.38640000       0.19770000
C       -0.00190000       0.00260000      -0.00300000
C       -0.44360000      -0.55920000      -1.33250000
C       -1.29930000      -0.74940000      -0.08710000
C       -1.44120000      -2.05710000       0.64770000
C       -1.10570000      -3.39790000       0.04410000
C       -0.18580000      -2.78810000       1.07590000
C        1.15480000      -2.17690000       0.67650000
C        1.14330000      -0.63840000       0.76130000
H        0.62650000       1.81530000      -0.21550000
H       -0.81550000       0.15220000      -2.06140000
H        0.08010000      -1.40660000      -1.76100000
H       -2.18370000      -0.12140000      -0.06310000
H       -2.25720000      -2.05590000       1.36380000
H       -1.71060000      -4.25240000       0.32810000
H       -0.76240000      -3.42310000      -0.98550000
H       -0.20850000      -3.23650000       2.06410000
H        1.94530000      -2.56340000       1.32730000
H        1.43180000      -2.48520000      -0.33810000
H        2.10070000      -0.24200000       0.39550000
H        1.05270000      -0.32440000       1.80910000
