20
Properties=species:S:1:pos:R:3 gdb_95623=T pbc="F F F"
C       -0.03230000       1.57380000      -0.00100000
C        0.08930000       0.05200000       0.00870000
C        0.76320000      -0.50920000      -1.27180000
O        2.03790000       0.06900000      -1.48620000
C        0.89530000      -2.03300000      -1.17530000
N        1.78330000      -2.30570000      -0.04620000
C        1.16530000      -1.95830000       1.23520000
C        0.79850000      -0.47080000       1.25970000
O        1.02630000       0.21460000       2.22720000
H        0.95240000       2.02610000      -0.13690000
H       -0.67560000       1.90120000      -0.82380000
H       -0.45020000       1.93730000       0.93960000
H       -0.91610000      -0.39990000       0.04860000
H        0.14680000      -0.23900000      -2.13650000
H        2.64980000      -0.46040000      -0.95320000
H       -0.10130000      -2.49900000      -1.06960000
H        1.35850000      -2.41690000      -2.08860000
H        2.09210000      -3.27020000      -0.04260000
H        0.23570000      -2.53010000       1.43000000
H        1.85920000      -2.15050000       2.05610000
