19
Properties=species:S:1:pos:R:3 gdb_88018=T pbc="F F F"
O        0.04090000       1.32540000       0.05390000
C       -0.01740000      -0.06760000       0.15520000
C       -0.75460000      -0.70910000       1.30490000
C       -1.36160000      -0.67420000      -0.07670000
C       -2.65550000       0.03840000      -0.49950000
C       -3.13010000      -1.28850000      -1.18000000
C       -1.74190000      -1.88180000      -0.90670000
C       -0.91260000      -2.75580000      -1.73810000
O       -1.50520000      -3.22290000      -0.51490000
H        0.65070000       1.64790000       0.72570000
H        0.85150000      -0.59520000      -0.24210000
H       -0.40360000      -1.66780000       1.67330000
H       -1.18760000      -0.04830000       2.04960000
H       -3.28730000       0.40280000       0.31290000
H       -2.48100000       0.85610000      -1.20200000
H       -3.91020000      -1.80760000      -0.61760000
H       -3.43320000      -1.22040000      -2.22720000
H       -1.32500000      -3.18550000      -2.65060000
H        0.17240000      -2.65800000      -1.72310000
