14
Properties=species:S:1:pos:R:3 gdb_84196=T pbc="F F F"
O        0.13780000       1.44080000       0.16430000
C       -0.01330000       0.04460000       0.04620000
C       -1.43350000      -0.42640000      -0.08920000
C       -1.52160000      -1.22880000      -1.16530000
N       -0.27100000      -1.32120000      -1.83380000
C        0.64560000      -0.47790000      -1.25030000
O        1.73500000      -0.16060000      -1.66820000
C       -2.63050000      -1.95330000      -1.65790000
C       -3.55910000      -2.57360000      -2.10720000
H        1.02070000       1.64040000      -0.17690000
H        0.47030000      -0.47670000       0.89410000
H       -2.22960000      -0.21720000       0.60730000
H       -0.16400000      -1.68990000      -2.76600000
H       -4.38780000      -3.11640000      -2.49100000
