18
Properties=species:S:1:pos:R:3 gdb_27543=T pbc="F F F"
N        0.14690000       1.33610000       0.27460000
C       -0.02150000      -0.02130000       0.03410000
C       -1.07160000      -0.87880000       0.16380000
C       -0.55520000      -2.19140000      -0.14890000
C        0.75600000      -2.01330000      -0.44880000
O        1.09930000      -0.68380000      -0.33410000
C       -1.32300000      -3.45720000      -0.14770000
C       -0.63530000      -4.79350000      -0.02050000
C       -1.46830000      -4.27360000       1.12210000
H        0.84830000       1.75120000      -0.32610000
H       -0.72070000       1.85110000       0.21750000
H       -2.08030000      -0.62870000       0.45210000
H        1.54790000      -2.67010000      -0.76340000
H       -2.20700000      -3.44390000      -0.78100000
H       -1.01850000      -5.62120000      -0.60660000
H        0.44100000      -4.80170000       0.10890000
H       -0.94650000      -3.91720000       2.00300000
H       -2.42560000      -4.74270000       1.32180000
