17
Properties=species:S:1:pos:R:3 gdb_110155=T pbc="F F F"
C        0.00880000       1.53790000       0.03020000
C        0.22630000       0.02090000       0.01340000
C        0.69310000      -0.47930000      -1.35230000
C        0.73380000      -2.01120000      -1.61650000
O       -0.24660000      -1.84200000      -2.70830000
C       -0.34330000      -0.49160000      -2.47800000
O       -1.05930000       0.28490000      -3.02370000
C        1.97970000      -2.59690000      -2.05780000
C        3.02680000      -3.07310000      -2.40430000
H        0.94240000       2.07190000      -0.17670000
H       -0.72140000       1.83470000      -0.72750000
H       -0.35520000       1.86630000       1.00770000
H        0.97290000      -0.26380000       0.76450000
H       -0.70400000      -0.49210000       0.28720000
H        1.61610000       0.01900000      -1.66160000
H        0.27430000      -2.60340000      -0.81970000
H        3.94850000      -3.50010000      -2.71560000
