19
Properties=species:S:1:pos:R:3 gdb_84511=T pbc="F F F"
C       -0.17880000       1.55710000       0.03610000
C        0.03180000       0.03740000      -0.01080000
C        0.85140000      -0.44680000      -1.21370000
C        1.86660000      -1.26070000      -0.88730000
C        1.95300000      -1.42920000       0.58920000
C        2.24700000      -0.20800000       1.45600000
C        0.83500000      -0.56510000       1.13410000
O        0.33000000      -1.59910000       1.99630000
C        1.31960000      -2.52630000       1.45860000
H        0.77710000       2.08790000       0.08490000
H       -0.71090000       1.90680000      -0.85460000
H       -0.76840000       1.83930000       0.91340000
H       -0.95440000      -0.44690000      -0.02030000
H        0.62240000      -0.11760000      -2.22400000
H        2.54900000      -1.71190000      -1.60010000
H        2.59420000      -0.35330000       2.47460000
H        2.68080000       0.63550000       0.93170000
H        0.83600000      -3.31740000       0.87550000
H        1.93550000      -2.97010000       2.24940000
