23
Properties=species:S:1:pos:R:3 gdb_95763=T pbc="F F F"
C        0.05640000       1.58470000      -0.00210000
C        0.02100000       0.05400000      -0.01900000
C        0.74410000      -0.50520000      -1.25080000
O        0.76830000      -1.92310000      -1.26270000
C        1.45660000      -2.44440000      -0.14140000
C        0.76840000      -2.07650000       1.18880000
C       -0.58360000      -2.78400000       1.31840000
O        1.62680000      -2.43690000       2.27350000
C        0.64220000      -0.54670000       1.25340000
H        1.08680000       1.95550000       0.04940000
H       -0.40620000       2.00520000      -0.90160000
H       -0.48080000       1.98010000       0.86580000
H       -1.02710000      -0.26650000      -0.08480000
H        0.24010000      -0.20100000      -2.17350000
H        1.77610000      -0.11110000      -1.28320000
H        1.48820000      -3.53200000      -0.27440000
H        2.49350000      -2.07190000      -0.10720000
H       -0.44130000      -3.87140000       1.35910000
H       -1.09750000      -2.47260000       2.23250000
H       -1.22480000      -2.57470000       0.45870000
H        1.61720000      -3.39700000       2.35310000
H        1.65440000      -0.14310000       1.38830000
H        0.06820000      -0.25920000       2.14150000
