16
Properties=species:S:1:pos:R:3 gdb_39517=T pbc="F F F"
C       -0.00540000       1.56170000       0.04230000
N        1.41210000       1.97390000       0.05590000
C        2.08790000       0.95160000      -0.29370000
N        3.36960000       0.66580000       0.24050000
C        3.08500000      -0.08420000       1.42470000
N        2.01150000      -0.72480000       1.67680000
C        1.04620000      -0.90240000       0.61540000
C        0.01300000       0.04200000      -0.09160000
C        1.33870000      -0.28110000      -0.71650000
H       -0.45020000       1.91840000       0.97760000
H       -0.56750000       2.02080000      -0.78250000
H        3.91990000       1.49120000       0.45420000
H        3.88420000      -0.05560000       2.16380000
H        0.66300000      -1.91940000       0.61960000
H       -0.89270000      -0.46980000      -0.39560000
H        1.57020000      -0.81420000      -1.63080000
