19
Properties=species:S:1:pos:R:3 gdb_73525=T pbc="F F F"
C       -0.05780000       1.65160000      -0.14110000
C       -0.02270000       0.11920000      -0.00450000
O       -1.36000000      -0.35580000       0.19820000
C       -1.51010000      -0.67830000       1.58410000
C       -0.10010000      -0.84880000       2.10910000
C        0.74850000      -0.40400000       1.19340000
C        2.17650000      -0.65750000       0.80010000
C        1.98200000      -0.89350000      -0.69740000
C        0.77350000      -0.52000000      -1.12860000
H        0.95130000       2.06760000      -0.22150000
H       -0.61790000       1.93450000      -1.03790000
H       -0.55240000       2.09740000       0.72720000
H       -2.07660000       0.11030000       2.10790000
H       -2.09170000      -1.60590000       1.66920000
H        0.12910000      -1.35530000       3.03840000
H        2.83790000       0.20320000       0.97690000
H        2.62310000      -1.51140000       1.32030000
H        2.77040000      -1.30400000      -1.31910000
H        0.42050000      -0.56800000      -2.15220000
