21
Properties=species:S:1:pos:R:3 gdb_59680=T pbc="F F F"
C       -0.05080000       1.55610000      -0.08420000
C        0.04440000       0.03110000       0.07080000
C        0.81390000      -0.34720000       1.34390000
C       -1.34960000      -0.58990000       0.06620000
C       -2.22310000      -0.47040000      -1.20010000
O       -2.48690000      -1.88930000      -1.21390000
C       -1.53770000      -2.13100000      -0.14620000
C       -0.38370000      -2.90470000      -0.58440000
C        0.55920000      -3.55700000      -0.94770000
H        0.94590000       2.00780000      -0.11280000
H       -0.56990000       1.83960000      -1.00580000
H       -0.59390000       2.00420000       0.75650000
H        0.59250000      -0.36960000      -0.79200000
H        0.91280000      -1.43180000       1.44280000
H        1.82150000       0.08090000       1.33280000
H        0.30200000       0.03240000       2.23660000
H       -1.89540000      -0.27190000       0.96050000
H       -3.14480000       0.11520000      -1.11700000
H       -1.67610000      -0.15270000      -2.09860000
H       -2.02270000      -2.64730000       0.69150000
H        1.38870000      -4.13650000      -1.27070000
