18
Properties=species:S:1:pos:R:3 gdb_85300=T pbc="F F F"
C       -0.04360000       1.55200000       0.02520000
C        0.00810000       0.02230000       0.03520000
N        0.71310000      -0.49910000      -1.13950000
C        1.88760000      -1.20030000      -1.06810000
O        2.51270000      -1.58800000      -2.03330000
C        2.28570000      -1.45770000       0.38710000
C        1.06830000      -2.01550000       1.15420000
C        0.74520000      -0.51170000       1.27080000
O        2.15910000      -0.20180000       1.11890000
H        0.96790000       1.95690000       0.11220000
H       -0.48990000       1.92250000      -0.90310000
H       -0.64840000       1.92370000       0.85880000
H       -1.01610000      -0.37930000       0.04950000
H        0.40910000      -0.22650000      -2.06300000
H        3.27220000      -1.91360000       0.46040000
H        0.37010000      -2.66870000       0.62760000
H        1.35460000      -2.44400000       2.11550000
H        0.32170000      -0.11500000       2.19670000
