15
Properties=species:S:1:pos:R:3 gdb_29089=T pbc="F F F"
C       -0.27390000       1.51550000       0.06820000
C        0.01990000       0.05350000      -0.04730000
C        0.15010000      -0.60450000      -1.20030000
O        0.42020000      -1.94900000      -1.26650000
C        0.57450000      -2.70580000      -0.12730000
N        0.82260000      -3.94160000      -0.17930000
C        0.43820000      -2.01460000       1.21920000
O        0.55720000      -2.59670000       2.27090000
N        0.16720000      -0.66760000       1.14170000
H        0.52360000       2.03950000       0.60880000
H       -0.36590000       1.96710000      -0.92120000
H       -1.21080000       1.69070000       0.61080000
H        0.05810000      -0.15650000      -2.17760000
H        0.88270000      -4.25000000      -1.15200000
H        0.07490000      -0.19970000       2.03220000
