13
Properties=species:S:1:pos:R:3 gdb_16379=T pbc="F F F"
O       -0.03840000       0.02870000      -0.00910000
C       -0.06900000       1.22280000       0.02030000
C       -1.23760000       2.20960000       0.03970000
C       -0.80460000       3.23920000      -1.04450000
C        0.28230000       3.54620000       0.02660000
N       -0.69180000       3.13210000       1.12090000
C        1.11150000       2.26090000       0.01010000
O        2.29150000       2.07760000      -0.02910000
H       -2.24210000       1.80550000       0.14030000
H       -0.50200000       2.88530000      -2.03640000
H       -1.52470000       4.05710000      -1.13640000
H        0.81240000       4.49160000       0.11400000
H       -1.36130000       3.89460000       1.23550000
