22
Properties=species:S:1:pos:R:3 gdb_73817=T pbc="F F F"
C        0.05780000       1.52160000      -0.10990000
C       -0.00570000       0.02720000      -0.06850000
C       -1.06610000      -0.75730000       0.18240000
C       -2.46910000      -0.33560000       0.50130000
C       -0.68490000      -2.20290000       0.08150000
C       -1.49160000      -3.30500000       0.66250000
N       -1.43930000      -3.12950000      -0.80020000
C        0.84090000      -2.23500000      -0.00520000
C        1.23920000      -0.78590000      -0.36520000
H        0.76900000       1.90430000       0.63370000
H        0.41870000       1.86910000      -1.08700000
H       -0.90850000       1.99500000       0.07900000
H       -2.62300000       0.73430000       0.34630000
H       -3.20280000      -0.86220000      -0.12280000
H       -2.72740000      -0.56130000       1.54360000
H       -0.99160000      -4.19770000       1.03160000
H       -2.41160000      -3.05930000       1.18750000
H       -2.29660000      -2.68550000      -1.12370000
H        1.26080000      -2.50880000       0.96850000
H        1.17660000      -2.97570000      -0.73370000
H        1.51960000      -0.68140000      -1.42300000
H        2.10420000      -0.43510000       0.21120000
