20
Properties=species:S:1:pos:R:3 gdb_109411=T pbc="F F F"
C        0.28120000       1.55080000      -0.10840000
C       -0.04230000       0.05210000      -0.11500000
N        0.63340000      -0.71910000      -1.14090000
C        0.24500000      -0.94040000      -2.46000000
O       -0.83780000      -0.94740000      -2.98170000
C        1.69640000      -1.12210000      -2.90070000
C        2.46220000       0.14540000      -2.51300000
C        2.06940000      -0.84660000      -1.45400000
C        2.99410000      -1.58070000      -0.53230000
H        1.34950000       1.72860000       0.04990000
H       -0.00890000       2.01890000      -1.05400000
H       -0.26420000       2.04960000       0.69920000
H        0.19010000      -0.38390000       0.86430000
H       -1.11220000      -0.10320000      -0.28640000
H        2.09120000      -1.86360000      -3.58050000
H        3.50890000       0.14780000      -2.80760000
H        1.97520000       1.11330000      -2.57770000
H        3.18510000      -1.00660000       0.38180000
H        2.56830000      -2.54660000      -0.24300000
H        3.95890000      -1.75610000      -1.01670000
