22
Properties=species:S:1:pos:R:3 gdb_78219=T pbc="F F F"
C        0.04790000       1.71530000      -0.36240000
C        0.05240000       0.20030000      -0.41310000
C        0.57520000      -0.66660000      -1.49020000
C        1.90940000      -0.21620000      -2.06190000
O        1.86910000       1.01960000      -2.74850000
C        2.48480000      -0.30240000      -0.60340000
C        3.41050000      -1.50960000      -0.45300000
C        3.11970000       0.92830000       0.03300000
N        1.13430000      -0.74420000      -0.06230000
H        0.76960000       2.16410000      -1.04030000
H       -0.94640000       2.06450000      -0.66210000
H        0.22610000       2.07230000       0.65760000
H       -0.86340000      -0.21040000       0.01340000
H       -0.01240000      -1.47600000      -1.91300000
H        2.35570000      -0.99000000      -2.69970000
H        2.73860000       1.17860000      -3.12950000
H        4.35480000      -1.34310000      -0.98380000
H        3.63370000      -1.69000000       0.60320000
H        2.94080000      -2.41360000      -0.85160000
H        2.63390000       1.86010000      -0.25080000
H        3.07950000       0.83690000       1.12390000
H        4.17520000       1.00080000      -0.25260000
