21
Properties=species:S:1:pos:R:3 gdb_107471=T pbc="F F F"
C        0.03130000       1.49510000       0.40440000
C        0.03330000       0.04340000      -0.09590000
C       -1.33700000      -0.55210000      -0.17820000
O       -2.05070000      -0.84900000       1.03180000
C       -1.85970000      -1.90470000       0.07310000
C       -2.96300000      -1.75940000      -0.97600000
C       -2.42880000      -0.29800000      -1.25630000
C       -3.39750000       0.84870000      -1.01720000
O       -1.76840000      -0.19290000      -2.50650000
H        1.05320000       1.87590000       0.49040000
H       -0.51130000       2.15190000      -0.28250000
H       -0.44310000       1.56590000       1.38770000
H        0.48690000      -0.01160000      -1.09130000
H        0.63780000      -0.57920000       0.57370000
H       -1.35500000      -2.79850000       0.42300000
H       -2.80870000      -2.39180000      -1.85340000
H       -3.98520000      -1.86410000      -0.60270000
H       -3.78600000       0.80770000       0.00300000
H       -2.90320000       1.81230000      -1.17330000
H       -4.24890000       0.78590000      -1.70690000
H       -2.43900000      -0.10840000      -3.19270000
