21
Properties=species:S:1:pos:R:3 gdb_108584=T pbc="F F F"
C       -0.10020000       1.50160000      -0.31990000
C       -0.16980000       0.09230000       0.28060000
C       -1.48050000      -0.59860000       0.01150000
O       -2.62850000       0.06760000       0.52160000
C       -3.32030000      -0.83760000       1.39910000
C       -3.07340000      -2.24960000       0.83420000
C       -1.74830000      -2.08480000       0.09540000
C       -1.81560000      -1.35720000      -1.24680000
O       -3.03800000      -1.13120000      -1.86990000
H        0.85540000       1.98060000      -0.08710000
H       -0.20740000       1.47090000      -1.40920000
H       -0.90300000       2.12780000       0.07890000
H        0.63570000      -0.53150000      -0.12560000
H       -0.00880000       0.14080000       1.36570000
H       -2.91290000      -0.74430000       2.41600000
H       -4.37190000      -0.53860000       1.41730000
H       -3.00820000      -2.99900000       1.62640000
H       -3.87070000      -2.54400000       0.14480000
H       -0.94280000      -2.79020000       0.26590000
H       -1.01660000      -1.55910000      -1.95580000
H       -3.43970000      -0.39210000      -1.39010000
