19
Properties=species:S:1:pos:R:3 gdb_120408=T pbc="F F F"
C       -0.22790000       1.31400000       0.41580000
O       -0.11000000      -0.06530000       0.15660000
C       -1.35770000      -0.69690000      -0.02770000
C       -1.10760000      -2.16760000      -0.30750000
C       -0.56610000      -2.94540000       0.93760000
C       -2.02050000      -3.35380000       1.19080000
O       -2.69790000      -3.53580000       2.16450000
C       -2.42090000      -3.03330000      -0.25090000
O       -3.67440000      -2.45070000      -0.46190000
H        0.78220000       1.71040000       0.54300000
H       -0.71710000       1.84530000      -0.41560000
H       -0.80520000       1.50940000       1.33340000
H       -1.98730000      -0.57540000       0.87190000
H       -1.91170000      -0.24240000      -0.86390000
H       -0.52100000      -2.28220000      -1.21980000
H        0.06710000      -3.79580000       0.66970000
H       -0.07710000      -2.36220000       1.71920000
H       -2.29500000      -3.91590000      -0.89460000
H       -4.13830000      -2.47370000       0.38500000
