14
Properties=species:S:1:pos:R:3 gdb_132172=T pbc="F F F"
O        0.06990000       1.34980000       0.16640000
C        0.01410000      -0.00430000       0.05840000
C       -1.15250000      -0.68220000       0.04720000
C       -1.19740000      -2.13590000       0.01390000
N       -2.30870000      -2.78770000       0.01330000
C        0.13550000      -2.74170000      -0.04520000
F        0.18860000      -4.07690000      -0.11100000
C        1.27570000      -2.03290000      -0.04010000
N        1.23600000      -0.64460000      -0.02280000
H        0.73290000       1.69480000      -0.44400000
H       -2.08520000      -0.13510000       0.04490000
H       -2.11700000      -3.79000000      -0.03040000
H        2.25230000      -2.49620000      -0.07740000
H        2.03780000      -0.15450000       0.34410000
