17
Properties=species:S:1:pos:R:3 gdb_75953=T pbc="F F F"
C       -0.22160000       1.38480000       0.00750000
C        0.04130000      -0.14440000       0.00250000
C        0.79450000      -0.50360000      -1.26230000
N        0.20410000      -0.62490000      -2.36950000
O        2.16570000      -0.55440000      -1.14940000
C        2.64990000      -1.15280000       0.03240000
O        2.13290000      -0.56990000       1.20830000
C        0.75930000      -0.51800000       1.28350000
N        0.13820000      -0.65060000       2.37260000
H        0.72080000       1.94040000       0.02340000
H       -0.77670000       1.66060000      -0.89130000
H       -0.80100000       1.65050000       0.89390000
H       -0.92020000      -0.65830000      -0.01370000
H        0.87690000      -0.81310000      -3.11520000
H        2.41910000      -2.22790000       0.02220000
H        3.72800000      -0.99390000       0.04850000
H        0.78990000      -0.84810000       3.13450000
