16
Properties=species:S:1:pos:R:3 gdb_131784=T pbc="F F F"
O        0.12450000       1.42260000       0.21240000
C        0.05830000       0.01220000       0.24410000
C       -1.33940000      -0.51520000      -0.14740000
C       -1.39690000      -2.01360000      -0.09360000
C       -2.00790000      -2.71440000       0.95640000
N       -2.02950000      -4.04070000       1.01260000
N       -1.44200000      -4.72650000       0.03300000
C       -0.86780000      -4.03150000      -0.94730000
N       -0.81020000      -2.70250000      -1.07150000
H        0.07510000       1.70440000      -0.70670000
H        0.81250000      -0.45440000      -0.40520000
H        0.28650000      -0.27750000       1.27530000
H       -2.08530000      -0.07320000       0.51940000
H       -1.56110000      -0.19470000      -1.17170000
H       -2.50020000      -2.19560000       1.77410000
H       -0.39960000      -4.62340000      -1.72910000
