18
Properties=species:S:1:pos:R:3 gdb_41272=T pbc="F F F"
C        0.05670000       1.51220000      -0.10090000
C        1.60630000       1.46470000      -0.01070000
C        1.96500000       1.34670000       1.47260000
O        3.29800000       0.87330000       1.78870000
C        2.78600000      -0.41550000       2.23880000
C        1.48070000      -0.12830000       1.51890000
C       -0.01790000      -0.41530000       1.49750000
N       -0.08410000       0.01780000       0.05070000
C        1.43250000      -0.08700000      -0.03720000
H       -0.47310000       2.10650000       0.65380000
H       -0.30220000       1.80990000      -1.09030000
H        2.20990000       2.07210000      -0.68520000
H        1.63730000       2.12970000       2.16740000
H        3.39680000      -1.25210000       1.88220000
H        2.71740000      -0.45390000       3.33580000
H       -0.27680000      -1.47780000       1.55950000
H       -0.65860000       0.14600000       2.18640000
H        1.88340000      -0.81040000      -0.71580000
