17
Properties=species:S:1:pos:R:3 gdb_70647=T pbc="F F F"
C       -0.39750000       1.34220000       0.01930000
C        0.07730000      -0.08030000       0.08540000
O       -0.58010000      -0.95740000       1.00050000
C        0.82220000      -0.71910000       1.17680000
C        1.70060000      -1.80970000       0.60540000
N        1.12480000      -2.04200000      -0.72410000
C        0.51020000      -0.80240000      -1.20170000
C       -0.60550000      -1.07290000      -2.12110000
N       -1.47490000      -1.24520000      -2.86190000
H        0.35740000       1.98840000      -0.44050000
H       -1.31330000       1.41290000      -0.57660000
H       -0.61360000       1.71220000       1.02380000
H        1.10910000      -0.19610000       2.08470000
H        2.74170000      -1.44390000       0.59360000
H        1.67280000      -2.73290000       1.19510000
H        1.77550000      -2.43910000      -1.38780000
H        1.20520000      -0.12390000      -1.72870000
