19
Properties=species:S:1:pos:R:3 gdb_81943=T pbc="F F F"
C        0.14390000       1.61680000       0.05220000
C        0.09000000       0.09050000      -0.00590000
C        0.78540000      -0.58420000      -1.18550000
C        2.29420000      -0.62120000      -1.16360000
C        1.51980000      -1.83040000      -0.70890000
C        1.29060000      -1.96880000       0.78090000
O        2.42000000      -2.31970000       1.53870000
C        0.76130000      -0.58420000       1.18870000
O        0.96300000      -0.11040000       2.28010000
H        1.17570000       1.97230000      -0.02500000
H       -0.43010000       2.05910000      -0.76690000
H       -0.26470000       1.97640000       1.00030000
H       -0.96330000      -0.23180000       0.00800000
H        0.28260000      -0.58130000      -2.14570000
H        2.80660000      -0.68920000      -2.11630000
H        2.83080000      -0.04290000      -0.41690000
H        1.54060000      -2.72760000      -1.31530000
H        0.47070000      -2.69330000       0.94660000
H        2.36070000      -1.79470000       2.35110000
