13
Properties=species:S:1:pos:R:3 gdb_127216=T pbc="F F F"
C       -0.01690000       1.45440000       0.01760000
N        0.01220000      -0.01210000       0.01820000
C        0.10920000      -0.63570000      -1.21600000
O        0.16920000      -0.05000000      -2.25700000
O        0.13660000      -2.01450000      -1.22230000
N        0.07340000      -2.78970000      -0.06980000
C       -0.01470000      -2.17070000       1.04280000
C       -0.05600000      -0.70650000       1.22200000
O       -0.14040000      -0.17190000       2.30420000
H        0.89510000       1.84140000      -0.44060000
H       -0.87380000       1.80640000      -0.55960000
H       -0.09300000       1.77640000       1.05380000
H       -0.06320000      -2.78670000       1.93390000
