11
Properties=species:S:1:pos:R:3 gdb_21391=T pbc="F F F"
N        0.03050000       1.33400000       0.05590000
N        1.30680000       1.82470000       0.03110000
C        2.09120000       0.78460000      -0.00770000
N        1.35770000      -0.38660000      -0.00890000
C        1.31240000      -1.76750000      -0.03180000
N        0.06200000      -2.15920000      -0.00570000
N       -0.78130000      -1.05830000       0.03560000
C        0.02880000      -0.02800000       0.03220000
H       -0.75030000       1.96400000       0.08780000
H        3.16600000       0.83640000      -0.03500000
H        2.18100000      -2.40260000      -0.06570000
