14
Properties=species:S:1:pos:R:3 gdb_9220=T pbc="F F F"
C       -0.18140000       1.22840000      -0.14390000
O       -0.06720000      -0.15310000       0.23930000
C       -1.18830000      -0.87740000       0.12430000
O       -2.25180000      -0.45970000      -0.24950000
C       -0.91300000      -2.33110000       0.49530000
O       -2.10590000      -3.02280000       0.80790000
C       -2.91760000      -3.34870000      -0.22860000
O       -3.97100000      -3.87960000      -0.06420000
H        0.81000000       1.65650000      -0.00080000
H       -0.49020000       1.31050000      -1.18850000
H       -0.91540000       1.73740000       0.48480000
H       -0.37340000      -2.80320000      -0.33750000
H       -0.27210000      -2.38200000       1.37640000
H       -2.48310000      -3.09570000      -1.21280000
