21
Properties=species:S:1:pos:R:3 gdb_81443=T pbc="F F F"
C       -0.21300000       1.48030000       0.04280000
C        0.01810000      -0.02540000       0.05270000
C        1.12120000      -0.60150000      -0.89910000
C        2.15660000      -0.23930000       0.20780000
C        0.97230000      -0.60790000       1.15200000
C        0.83940000      -2.09550000       0.86280000
C        1.17480000      -3.18320000       1.77990000
O       -0.19290000      -2.84270000       1.50030000
C        0.95950000      -2.12060000      -0.67700000
H        0.71130000       2.06010000       0.11550000
H       -0.71970000       1.78370000      -0.88000000
H       -0.85390000       1.77550000       0.88070000
H       -0.94960000      -0.53560000      -0.01280000
H        1.22890000      -0.25380000      -1.92730000
H        3.06590000      -0.84460000       0.27190000
H        2.41880000       0.81780000       0.23690000
H        0.92420000      -0.29860000       2.19630000
H        1.50430000      -4.14470000       1.38640000
H        1.51220000      -2.96070000       2.79210000
H        0.05310000      -2.53090000      -1.13120000
H        1.82000000      -2.69680000      -1.03050000
