16
Properties=species:S:1:pos:R:3 gdb_78583=T pbc="F F F"
O        0.06460000       1.49260000      -0.10810000
C        0.07600000       0.09200000      -0.03050000
C        0.00280000      -0.57550000       1.35210000
C       -1.49930000      -0.22040000       1.55190000
C       -1.78710000      -1.70230000       1.82690000
C       -3.08360000      -2.25820000       1.50200000
C       -4.16760000      -2.70750000       1.23880000
N       -0.70750000      -1.80860000       0.72710000
C       -1.30680000      -0.54560000       0.04030000
H        0.97030000       1.80930000      -0.03530000
H        0.77300000      -0.37500000      -0.73860000
H        0.76480000      -0.71300000       2.12190000
H       -1.94000000       0.66930000       2.00610000
H       -1.42150000      -2.09580000       2.78260000
H       -5.12230000      -3.10970000       1.00490000
H       -2.07400000      -0.64230000      -0.72660000
