12
Properties=species:S:1:pos:R:3 gdb_130590=T pbc="F F F"
O       -0.03750000      -0.05490000       0.00500000
C       -0.01780000       1.14870000       0.01010000
C       -1.20410000       2.09910000       0.03090000
C       -0.78720000       3.37830000       0.03090000
C        0.69390000       3.37980000       0.01040000
C        1.15290000       2.08640000      -0.00190000
N        2.48920000       2.21770000      -0.01980000
N        2.83910000       3.52750000      -0.01860000
N        1.73070000       4.24090000      -0.00010000
H       -2.22030000       1.73170000       0.04330000
H       -1.40770000       4.26430000       0.04350000
H        3.21700000       1.51960000      -0.03300000
