21
Properties=species:S:1:pos:R:3 gdb_120335=T pbc="F F F"
O        0.03600000       1.40710000      -0.03990000
C       -0.02240000       0.01170000       0.21320000
C       -1.37740000      -0.49570000      -0.27150000
C       -1.50690000      -1.99860000      -0.11930000
C       -1.94240000      -2.70430000       1.14890000
C       -2.73480000      -1.91770000       2.17740000
O       -3.77560000      -1.25150000       1.46580000
C       -4.07740000      -1.98670000       0.28150000
C       -2.81800000      -2.75030000      -0.08470000
H        0.88200000       1.73540000       0.27760000
H        0.78640000      -0.52250000      -0.31390000
H        0.09400000      -0.20640000       1.28720000
H       -2.16690000       0.02500000       0.27470000
H       -1.48380000      -0.22200000      -1.32870000
H       -0.72970000      -2.54490000      -0.65210000
H       -1.39370000      -3.57460000       1.49090000
H       -3.14780000      -2.60690000       2.93190000
H       -2.16170000      -1.14540000       2.70290000
H       -4.90280000      -2.69600000       0.45460000
H       -4.40470000      -1.26150000      -0.47170000
H       -2.92700000      -3.65400000      -0.67370000
