12
Properties=species:S:1:pos:R:3 gdb_130933=T pbc="F F F"
O        0.01080000      -0.10520000       0.23630000
C        0.01410000       1.06030000      -0.04660000
C        1.30490000       1.86010000      -0.22320000
C        1.23710000       2.84380000      -1.33430000
N        0.34470000       2.88430000      -2.25320000
O        0.71840000       3.98640000      -3.06080000
C        1.84760000       4.54770000      -2.55670000
O        2.44090000       5.48130000      -2.97510000
O        2.18440000       3.80610000      -1.43050000
H       -0.91980000       1.64540000      -0.16360000
H        1.49590000       2.40960000       0.70950000
H        2.14090000       1.16790000      -0.36350000
