21
Properties=species:S:1:pos:R:3 gdb_108857=T pbc="F F F"
C        0.16530000       1.54470000      -0.17070000
C       -0.00090000       0.04410000       0.06710000
O        0.54960000      -0.68330000      -1.03840000
C        1.43490000      -1.70700000      -0.58400000
C        2.75150000      -1.62470000      -1.35770000
C        1.54310000      -1.48030000       0.90800000
C        2.42450000      -2.30870000       1.78220000
O        2.21670000      -1.95230000       3.13680000
C        0.72660000      -0.49620000       1.26740000
H        1.22570000       1.80890000      -0.21920000
H       -0.30960000       1.83130000      -1.11350000
H       -0.30290000       2.11600000       0.63780000
H       -1.08030000      -0.17920000       0.13720000
H        0.97840000      -2.69430000      -0.78350000
H        3.26410000      -0.68190000      -1.14460000
H        3.41430000      -2.45610000      -1.09390000
H        2.55350000      -1.67650000      -2.43190000
H        2.20460000      -3.37770000       1.60790000
H        3.47820000      -2.16200000       1.48740000
H        2.83250000      -2.45630000       3.67610000
H        0.57730000      -0.13190000       2.27460000
