21
Properties=species:S:1:pos:R:3 gdb_71599=T pbc="F F F"
C        0.00800000       1.51430000      -0.00990000
C        0.05730000       0.00680000      -0.03350000
C        0.86010000      -0.71060000      -1.11820000
C        0.60970000      -2.20180000      -0.74030000
C       -0.28200000      -2.01870000       0.48100000
C        0.19210000      -0.79210000       1.30300000
O       -1.18840000      -0.46680000       1.68320000
C       -1.25450000      -0.82000000       0.24970000
C       -2.58510000      -0.77210000      -0.43450000
H        1.01150000       1.94210000       0.09510000
H       -0.42030000       1.91150000      -0.93750000
H       -0.60390000       1.85550000       0.82950000
H        0.49820000      -0.46280000      -2.12200000
H        1.92090000      -0.44000000      -1.08460000
H        0.10920000      -2.76040000      -1.53750000
H        1.53440000      -2.73620000      -0.50140000
H       -0.66080000      -2.88340000       1.02560000
H        0.95910000      -0.72610000       2.07660000
H       -2.99390000       0.24320000      -0.41720000
H       -2.48900000      -1.08650000      -1.47910000
H       -3.29720000      -1.43880000       0.06180000
