21
Properties=species:S:1:pos:R:3 gdb_59256=T pbc="F F F"
C       -0.00160000       1.40640000      -0.22000000
C        0.07320000      -0.08770000       0.12630000
C        0.76550000      -0.31840000       1.47700000
C       -1.31590000      -0.70180000       0.11330000
C       -2.01710000      -1.21360000      -1.12380000
O       -1.08450000      -1.83230000      -2.02140000
C       -0.75870000      -2.84690000      -1.03560000
C       -1.64770000      -2.16650000       0.00440000
O       -2.35810000      -2.80690000       0.99720000
H        0.99760000       1.85270000      -0.25530000
H       -0.47700000       1.56260000      -1.19320000
H       -0.58360000       1.95480000       0.53070000
H        0.66220000      -0.57920000      -0.65690000
H        0.21330000       0.16890000       2.28940000
H        0.83020000      -1.38480000       1.71550000
H        1.78110000       0.09130000       1.47390000
H       -2.02860000      -0.22240000       0.78610000
H       -2.94710000      -0.84040000      -1.53690000
H       -1.14410000      -3.82580000      -1.35140000
H        0.31680000      -2.92210000      -0.83900000
H       -2.90510000      -3.48920000       0.59050000
