16
Properties=species:S:1:pos:R:3 gdb_22381=T pbc="F F F"
O       -0.12950000       1.29960000      -0.04640000
N        0.01040000      -0.10240000       0.00280000
C       -1.12260000      -0.66820000      -0.02940000
C       -2.57470000      -0.21090000      -0.02120000
C       -2.96580000      -1.70190000       0.06730000
O       -3.94650000      -2.18860000       0.90440000
C       -2.41360000      -2.47200000      -1.07540000
O       -2.34300000      -1.90700000      -2.34860000
C       -1.45850000      -2.11280000       0.05900000
H        0.78520000       1.59450000       0.01400000
H       -2.81280000       0.32420000       0.90200000
H       -2.93100000       0.35260000      -0.88580000
H       -4.75840000      -2.29500000       0.39580000
H       -2.69200000      -3.52760000      -1.05130000
H       -1.48220000      -2.11800000      -2.72600000
H       -0.91900000      -2.87380000       0.60850000
