19
Properties=species:S:1:pos:R:3 gdb_105697=T pbc="F F F"
O       -0.09070000       1.47800000      -0.28070000
C       -0.03170000       0.08200000      -0.06030000
C       -1.40300000      -0.55650000       0.03760000
C       -2.03640000      -1.16130000      -1.18140000
C       -1.52320000      -2.05640000      -0.07000000
O       -2.32070000       0.10560000       0.86430000
C       -1.93770000       0.22150000       2.21760000
C       -3.13880000       0.73020000       2.99490000
O       -3.13810000       0.90170000       4.18450000
H       -0.72350000       1.63760000      -0.98910000
H        0.53960000      -0.44090000      -0.84400000
H        0.52450000      -0.04510000       0.87550000
H       -3.11050000      -1.05110000      -1.27250000
H       -1.48980000      -1.13460000      -2.11800000
H       -0.62780000      -2.64330000      -0.24550000
H       -2.26460000      -2.53220000       0.56150000
H       -1.62350000      -0.74440000       2.64310000
H       -1.10950000       0.93310000       2.34990000
H       -4.02840000       0.93320000       2.35840000
