17
Properties=species:S:1:pos:R:3 gdb_27555=T pbc="F F F"
O        0.00000000       1.30080000       0.09010000
C        0.00960000      -0.04180000       0.01630000
N       -0.00400000      -0.76760000      -1.06670000
C        0.01720000      -2.08620000      -0.61430000
C        0.04800000      -2.11250000       0.75200000
N        0.03570000      -0.77780000       1.15300000
C        0.00340000      -3.20960000      -1.57250000
C       -0.27270000      -4.62130000      -1.12200000
C       -1.29750000      -3.89260000      -1.95090000
H       -0.02340000       1.61730000      -0.82160000
H        0.09170000      -2.91550000       1.46710000
H        0.05590000      -0.41870000       2.09160000
H        0.71260000      -3.09560000      -2.38750000
H        0.29540000      -5.42150000      -1.58290000
H       -0.50130000      -4.78950000      -0.07540000
H       -2.19850000      -3.55200000      -1.45340000
H       -1.43550000      -4.18810000      -2.98510000
