20
Properties=species:S:1:pos:R:3 gdb_104499=T pbc="F F F"
C        1.75790000       0.25270000      -1.17020000
C        1.36380000      -0.88640000      -0.25450000
C        2.21090000      -1.27850000       0.93060000
C        0.83600000      -0.69720000       1.15820000
C        0.74010000       0.68580000       1.79510000
O        1.33600000       0.76770000       3.07710000
C       -0.27370000      -1.66530000       1.57550000
C       -0.36300000      -1.82940000       3.02890000
N       -0.42040000      -1.91330000       4.18110000
H        2.32070000       1.02960000      -0.64620000
H        2.39990000      -0.12060000      -1.97520000
H        0.88370000       0.72280000      -1.63410000
H        0.90280000      -1.71690000      -0.78620000
H        2.37430000      -2.33040000       1.14110000
H        3.05100000      -0.64160000       1.18660000
H        1.27130000       1.41860000       1.18370000
H       -0.31600000       1.00140000       1.82270000
H        0.84990000       0.19650000       3.68260000
H       -1.24810000      -1.30850000       1.21770000
H       -0.11350000      -2.65140000       1.12650000
