18
Properties=species:S:1:pos:R:3 gdb_76707=T pbc="F F F"
O       -0.22220000       1.27970000      -0.29050000
C       -0.13850000      -0.10120000      -0.10380000
C       -0.39340000      -0.62710000       1.28820000
O       -0.74820000       0.34340000       2.24250000
C       -1.40730000      -0.88660000       0.19800000
C       -2.75490000      -0.19500000       0.19250000
C       -3.17840000       0.17800000      -1.24560000
C       -4.50630000       0.78440000      -1.29870000
N       -5.55930000       1.26030000      -1.32100000
H       -0.42020000       1.65820000       0.57800000
H        0.62940000      -0.55260000      -0.72470000
H        0.17850000      -1.46600000       1.67800000
H        0.04690000       0.58150000       2.73190000
H       -1.41960000      -1.90950000      -0.17120000
H       -3.50960000      -0.84710000       0.64350000
H       -2.72500000       0.71010000       0.80150000
H       -2.44730000       0.87890000      -1.66090000
H       -3.17750000      -0.71030000      -1.88810000
