15
Properties=species:S:1:pos:R:3 gdb_123640=T pbc="F F F"
C       -0.06100000       1.55710000      -0.00290000
C        1.44840000       1.89480000      -0.03800000
N        2.19260000       1.45580000       1.15550000
C        2.27060000       0.63980000      -0.08840000
C        1.27050000      -0.45340000      -0.07560000
C        0.00100000       0.05800000       0.00270000
N       -0.78240000      -1.03240000       0.08080000
N       -0.02660000      -2.16900000       0.02650000
N        1.22610000      -1.80700000      -0.06020000
H       -0.53860000       1.97650000       0.88870000
H       -0.57870000       1.95800000      -0.88230000
H        1.76170000       2.79970000      -0.54720000
H        3.03800000       2.01780000       1.23930000
H        3.20690000       0.57370000      -0.62930000
H       -1.78310000      -1.12380000       0.14710000
