15
Properties=species:S:1:pos:R:3 gdb_87480=T pbc="F F F"
O       -0.09730000       1.39120000      -0.06120000
C        0.00090000       0.00190000       0.00770000
C       -0.41410000      -0.71270000       1.29170000
C       -1.27950000      -0.73890000       0.07010000
C       -2.69770000      -0.25330000      -0.24130000
O       -2.50580000      -0.74560000      -1.63570000
C       -1.87920000      -1.82660000      -0.82790000
C       -3.17680000      -1.71270000       0.03420000
O       -4.06650000      -2.34610000       0.49210000
H        0.65040000       1.76860000       0.41470000
H        0.81440000      -0.44030000      -0.56820000
H        0.11670000      -1.61380000       1.58220000
H       -0.73680000      -0.08220000       2.11400000
H       -3.15320000       0.72310000      -0.10080000
H       -1.40810000      -2.65340000      -1.35480000
