19
Properties=species:S:1:pos:R:3 gdb_107074=T pbc="F F F"
C        0.06130000       1.50440000      -0.25920000
C        0.04510000       0.01370000       0.10840000
C       -1.34370000      -0.52460000       0.25580000
C       -2.37520000      -0.23970000       1.36480000
C       -2.98380000      -1.67650000       1.10450000
C       -4.38530000      -1.79430000       0.75660000
C       -5.54900000      -1.89350000       0.47150000
C       -1.93950000      -1.84210000      -0.02530000
O       -2.11170000      -0.76030000      -0.93890000
H        1.08730000       1.86760000      -0.36710000
H       -0.46290000       1.67370000      -1.20420000
H       -0.42870000       2.10940000       0.51080000
H        0.56050000      -0.56780000      -0.66390000
H        0.58870000      -0.14630000       1.04800000
H       -1.94620000      -0.15080000       2.36540000
H       -3.04400000       0.59920000       1.16730000
H       -2.74140000      -2.33850000       1.94240000
H       -6.57470000      -1.97810000       0.21030000
H       -1.51660000      -2.76330000      -0.41130000
