20
Properties=species:S:1:pos:R:3 gdb_76834=T pbc="F F F"
C        0.40410000       1.57450000       0.32730000
C        0.20010000       0.07600000       0.13500000
C        1.05650000      -0.71440000      -0.91680000
C        2.06160000       0.02600000      -1.78420000
N        1.57780000      -1.65680000       0.14660000
C        2.87630000      -1.27200000       0.78260000
C        2.11410000      -0.48240000       1.86330000
O        2.41800000       0.16180000       2.82300000
C        0.79160000      -0.89350000       1.19810000
H        1.45150000       1.83930000       0.49670000
H        0.05330000       2.12960000      -0.54880000
H       -0.16210000       1.92870000       1.19490000
H       -0.86650000      -0.11910000      -0.00690000
H        0.41010000      -1.29990000      -1.57910000
H        2.67850000       0.73740000      -1.22860000
H        2.72820000      -0.68540000      -2.28400000
H        1.53500000       0.58830000      -2.56210000
H        3.40510000      -2.14610000       1.18050000
H        3.58070000      -0.69960000       0.17200000
H        0.08770000      -1.44360000       1.82970000
