12
Properties=species:S:1:pos:R:3 gdb_242=T pbc="F F F"
C       -0.13140000       1.54480000       0.01240000
C        0.18720000       0.05450000       0.00080000
O        1.30750000      -0.38610000      -0.01280000
N       -0.96670000      -0.73680000       0.00780000
C       -1.08490000      -2.12530000       0.00110000
N       -0.10950000      -2.93280000      -0.01230000
H        0.80680000       2.09800000       0.00710000
H       -0.72210000       1.82730000      -0.86580000
H       -0.70630000       1.81710000       0.90410000
H       -1.84190000      -0.23790000       0.01910000
H       -2.14540000      -2.41120000       0.00920000
H       -0.46080000      -3.88940000      -0.01440000
