13
Properties=species:S:1:pos:R:3 gdb_3150=T pbc="F F F"
O        0.05510000       0.01880000      -0.04440000
C        0.03230000       1.22060000      -0.00000000
N       -0.97400000       2.16020000       0.00970000
C       -0.09440000       3.34120000      -0.01170000
C        1.07260000       2.33690000       0.03410000
C        2.36910000       2.32090000       0.74180000
N        2.30660000       2.39260000      -0.72800000
H       -1.97660000       2.06790000      -0.03620000
H       -0.14610000       3.92600000      -0.93480000
H       -0.19950000       3.99520000       0.85920000
H        2.73030000       3.22380000       1.22600000
H        2.66620000       1.38730000       1.21250000
H        2.49010000       1.47690000      -1.13530000
