21
Properties=species:S:1:pos:R:3 gdb_57051=T pbc="F F F"
C        0.07520000       1.59020000      -0.07030000
C        0.01060000       0.05130000      -0.02530000
C        0.54200000      -0.51930000      -1.26860000
N        0.93940000      -0.96980000      -2.25600000
C        0.71490000      -0.54610000       1.20940000
C        0.89290000      -2.08300000       1.30090000
C        2.33970000      -1.77980000       1.75410000
N        2.18000000      -0.39220000       1.27200000
C        2.75690000       0.66400000       2.07640000
H        1.10670000       1.92860000      -0.18980000
H       -0.50860000       1.98040000      -0.90760000
H       -0.32800000       2.00750000       0.85710000
H       -1.04390000      -0.25190000       0.03520000
H        0.20600000      -0.14180000       2.10200000
H        0.25080000      -2.60780000       2.00820000
H        0.84410000      -2.57270000       0.32700000
H        2.45750000      -1.84250000       2.84770000
H        3.15350000      -2.33600000       1.27850000
H        3.84630000       0.55520000       2.09110000
H        2.52790000       1.64460000       1.64960000
H        2.39960000       0.65310000       3.12420000
