15
Properties=species:S:1:pos:R:3 gdb_52298=T pbc="F F F"
O        0.47000000       0.10550000       0.47290000
C        0.52730000       1.29050000       0.57140000
O        0.73880000       2.09230000      -0.50280000
C        0.81350000       3.49830000      -0.28540000
C        2.26860000       3.94720000      -0.18950000
C        2.55490000       5.43090000       0.11020000
O        3.20240000       5.06120000       1.37060000
C        2.94890000       3.72830000       1.16860000
O        3.18670000       2.81940000       1.89560000
H        0.40570000       1.85650000       1.51290000
H        0.32720000       3.96900000      -1.14450000
H        0.25650000       3.78160000       0.61740000
H        2.83920000       3.53140000      -1.02280000
H        3.25610000       5.93500000      -0.55630000
H        1.68300000       6.06230000       0.29890000
