19
Properties=species:S:1:pos:R:3 gdb_41798=T pbc="F F F"
C       -0.00260000       1.52890000      -0.28500000
O        1.36820000       1.89810000      -0.23130000
C        2.13930000       0.73480000       0.02410000
C        2.66660000       0.73280000       1.45820000
C        1.64760000       0.72000000       2.56930000
C        0.38560000       0.28690000       2.57250000
C       -0.42270000      -0.33100000       1.45870000
C       -0.01680000       0.01750000       0.02590000
O        1.32180000      -0.37590000      -0.26820000
H       -0.57420000       2.10870000       0.44840000
H       -0.39670000       1.73800000      -1.28730000
H        2.98330000       0.71380000      -0.67730000
H        3.33580000      -0.13330000       1.57040000
H        3.30500000       1.61830000       1.56680000
H        2.03410000       1.09400000       3.51580000
H       -0.14570000       0.34230000       3.52100000
H       -0.39410000      -1.42530000       1.56450000
H       -1.47830000      -0.05380000       1.58450000
H       -0.66540000      -0.52750000      -0.66660000
