16
Properties=species:S:1:pos:R:3 gdb_25609=T pbc="F F F"
O       -0.22170000       0.25870000       0.44510000
C       -0.01690000       1.24840000      -0.22990000
N        1.20380000       1.70410000      -0.59470000
C        2.44130000       1.06860000      -0.17110000
C        3.50780000       2.10250000       0.02620000
C        4.49340000       2.16870000       0.97460000
N        5.21320000       3.30590000       0.67510000
C        4.63610000       3.87500000      -0.41740000
N        3.60770000       3.17450000      -0.83690000
H       -0.83000000       1.89160000      -0.62220000
H        1.29590000       2.55250000      -1.13270000
H        2.24010000       0.51620000       0.74990000
H        2.76170000       0.33080000      -0.92150000
H        4.74330000       1.53650000       1.81000000
H        6.00880000       3.65580000       1.18210000
H        5.00400000       4.79010000      -0.85630000
