19
Properties=species:S:1:pos:R:3 gdb_93887=T pbc="F F F"
C       -0.20570000       1.51270000       0.00790000
C        0.07550000       0.02030000       0.04050000
O        0.89670000      -0.33700000      -1.06580000
C        1.29240000      -1.67680000      -0.83470000
C        1.50440000      -1.82000000       0.69660000
O        2.87030000      -1.84400000       1.08730000
C        0.84800000      -0.53480000       1.27090000
C        1.89580000       0.45670000       1.75260000
O        1.89470000       0.93850000       2.85610000
H        0.71950000       2.09430000       0.02850000
H       -0.74860000       1.76890000      -0.90560000
H       -0.81610000       1.80320000       0.86770000
H       -0.88170000      -0.52730000      -0.02470000
H        0.51010000      -2.37350000      -1.17780000
H        2.21160000      -1.87060000      -1.39420000
H        0.98930000      -2.71350000       1.07270000
H        3.25340000      -2.68450000       0.81960000
H        0.18410000      -0.74400000       2.11160000
H        2.65570000       0.74060000       0.99750000
