17
Properties=species:S:1:pos:R:3 gdb_130047=T pbc="F F F"
N        0.02820000       1.22140000       0.34790000
C        0.05310000      -0.12980000       0.06440000
N       -0.97740000      -0.93330000       0.29240000
N       -0.46460000      -2.15720000      -0.05650000
C        0.80280000      -2.00410000      -0.48120000
N        1.17770000      -0.74000000      -0.41580000
C       -1.28340000      -3.32760000      -0.04570000
C       -0.71300000      -4.60300000       0.51770000
C       -1.77670000      -3.84880000       1.27450000
H        0.68000000       1.75150000      -0.21140000
H       -0.90000000       1.61800000       0.35430000
H        1.40700000      -2.83130000      -0.82180000
H       -1.95460000      -3.40150000      -0.89640000
H       -0.97690000      -5.52930000       0.02090000
H        0.29630000      -4.57330000       0.91070000
H       -1.47400000      -3.29900000       2.15700000
H       -2.78170000      -4.25190000       1.30830000
