17
Properties=species:S:1:pos:R:3 gdb_122800=T pbc="F F F"
C       -0.17000000       1.33250000      -0.16730000
O        0.00990000      -0.06040000      -0.05840000
C        0.53330000      -0.63930000      -1.22700000
C        0.60770000      -2.13650000      -1.03580000
O       -0.73820000      -2.65500000      -1.05920000
C       -0.87070000      -3.94070000      -0.75000000
O        0.01790000      -4.70420000      -0.46120000
C       -2.33010000      -4.40900000      -0.79840000
O       -3.25680000      -3.72570000      -1.12950000
H        0.78080000       1.85320000      -0.36360000
H       -0.87620000       1.59020000      -0.97170000
H       -0.57490000       1.68320000       0.78450000
H       -0.09460000      -0.40690000      -2.10270000
H        1.54920000      -0.26160000      -1.43750000
H        1.18450000      -2.60630000      -1.83870000
H        1.07410000      -2.38660000      -0.07940000
H       -2.41940000      -5.47160000      -0.49560000
