11
Properties=species:S:1:pos:R:3 gdb_21785=T pbc="F F F"
O       -0.07680000      -0.00480000      -0.00200000
C        0.01060000       1.19190000       0.00750000
C        1.31000000       1.95700000       0.00030000
N        1.18610000       3.29120000       0.01210000
C        2.33200000       3.95730000       0.00530000
C        3.54440000       3.26870000      -0.01270000
N        3.59420000       1.93580000      -0.02360000
N        2.45170000       1.26130000      -0.01710000
H       -0.86950000       1.86770000       0.02250000
H        2.28980000       5.04360000       0.01440000
H        4.50040000       3.78220000      -0.01850000
