17
Properties=species:S:1:pos:R:3 gdb_61157=T pbc="F F F"
C       -0.34310000       1.34110000       0.04220000
N        0.12900000      -0.03660000      -0.02680000
C        0.01870000      -0.77850000       1.23110000
C       -1.35880000      -0.97250000       1.69130000
C       -2.49030000      -1.09570000       2.07650000
C        0.05090000      -0.77330000      -1.19380000
N       -0.13530000      -2.03820000      -1.19340000
C        0.37350000      -0.04440000      -2.48890000
O        0.19620000      -0.55760000      -3.56320000
H       -0.25810000       1.83770000      -0.92380000
H       -1.39390000       1.38700000       0.35760000
H        0.25860000       1.90060000       0.76640000
H        0.49720000      -1.74890000       1.08260000
H        0.58210000      -0.22600000       1.99370000
H       -3.48950000      -1.23100000       2.41020000
H       -0.06100000      -2.37610000      -2.15470000
H        0.84270000       0.95570000      -2.40410000
