18
Properties=species:S:1:pos:R:3 gdb_9827=T pbc="F F F"
C       -0.00060000       1.49500000       0.08970000
C        0.08370000      -0.02510000      -0.01270000
C        0.67730000      -0.50250000      -1.32810000
O        0.99550000       0.26400000      -2.21450000
C        0.86910000      -1.98570000      -1.49110000
O        0.48360000      -2.80240000      -0.42040000
C        0.79050000      -2.54420000      -2.90210000
C        2.12020000      -2.42450000      -2.22290000
H        0.99200000       1.94630000       0.01270000
H       -0.60620000       1.90890000      -0.72050000
H       -0.44370000       1.79360000       1.04380000
H        0.67440000      -0.46210000       0.80190000
H       -0.90890000      -0.48550000       0.09600000
H       -0.46540000      -2.95560000      -0.48100000
H        0.35660000      -3.53350000      -2.99530000
H        0.55450000      -1.83640000      -3.68790000
H        2.78970000      -1.63830000      -2.55000000
H        2.58160000      -3.32830000      -1.84330000
