18
Properties=species:S:1:pos:R:3 gdb_73555=T pbc="F F F"
C        0.06830000       1.45420000      -0.13000000
C       -0.06120000      -0.07030000      -0.05740000
C       -1.48810000      -0.55370000       0.21090000
C       -1.46120000      -0.67060000       1.77450000
N       -0.06610000      -1.02340000       2.14180000
C        0.61810000      -0.70370000       1.12860000
O        1.89460000      -0.99700000       0.82180000
C        1.98200000      -0.85030000      -0.61740000
O        0.67540000      -0.69600000      -1.12410000
H        1.11290000       1.77490000      -0.08120000
H       -0.35890000       1.81150000      -1.07130000
H       -0.46780000       1.92930000       0.69670000
H       -2.26610000       0.11480000      -0.16520000
H       -1.62620000      -1.54380000      -0.23250000
H       -1.76350000       0.26830000       2.25680000
H       -2.13560000      -1.44870000       2.14200000
H        2.61780000       0.02050000      -0.83020000
H        2.42250000      -1.75950000      -1.03400000
