16
Properties=species:S:1:pos:R:3 gdb_96626=T pbc="F F F"
C       -0.10000000       1.37210000       0.10220000
N       -0.02560000      -0.07480000       0.02750000
C        0.61770000      -0.58330000      -0.95560000
N        1.28640000       0.04520000      -1.96460000
C        0.70120000      -2.09120000      -1.04160000
O        1.23650000      -2.62920000      -1.98060000
C        0.06890000      -2.85660000       0.12130000
C        0.11700000      -4.30200000      -0.05490000
N        0.14000000      -5.45040000      -0.17100000
H        0.89880000       1.83420000       0.13500000
H       -0.63230000       1.80270000      -0.76140000
H       -0.64100000       1.66660000       1.00380000
H        1.11040000       1.01450000      -2.16200000
H        1.60700000      -0.54220000      -2.71940000
H        0.57830000      -2.56720000       1.04700000
H       -0.96210000      -2.51380000       0.25100000
