17
Properties=species:S:1:pos:R:3 gdb_81998=T pbc="F F F"
C       -0.18540000       1.53400000       0.02600000
C       -0.00170000       0.02790000      -0.03480000
C        0.73970000      -0.59500000      -1.22220000
N        2.14430000      -0.11470000      -1.14660000
C        1.71760000      -1.28320000      -0.34430000
C        1.11590000      -0.62370000       0.92050000
O        1.96540000       0.25030000       1.60370000
C        0.55240000      -1.58080000       1.87070000
N        0.07880000      -2.35820000       2.58210000
H        0.74350000       2.05610000      -0.21440000
H       -0.94910000       1.85350000      -0.69070000
H       -0.50520000       1.84660000       1.02410000
H       -0.94830000      -0.49350000       0.12940000
H        0.32140000      -0.92380000      -2.16490000
H        2.64990000      -0.46150000      -1.95930000
H        2.20790000      -2.24480000      -0.42170000
H        2.47880000       0.68480000       0.90560000
