14
Properties=species:S:1:pos:R:3 gdb_48356=T pbc="F F F"
O       -0.56570000       1.28800000       1.40290000
C       -0.26060000       1.83320000       0.36740000
C        1.13040000       1.75330000      -0.18430000
C        2.23180000       2.03480000       0.82190000
N        1.99440000       0.68910000       0.36410000
C        1.31630000       2.15850000      -1.61740000
O        0.45690000       2.77440000      -2.21460000
C        2.57660000       1.80230000      -2.23920000
C        3.61800000       1.53880000      -2.78120000
H       -0.98120000       2.40940000      -0.23710000
H        3.14370000       2.50030000       0.45930000
H        1.89720000       2.32990000       1.81280000
H        1.42550000       0.19700000       1.05620000
H        4.53540000       1.29820000      -3.26190000
