15
Properties=species:S:1:pos:R:3 gdb_127897=T pbc="F F F"
C        0.05820000       1.36530000       0.10810000
N       -0.01580000      -0.08080000       0.16090000
C       -1.12510000      -0.69300000      -0.00140000
N       -2.35560000      -0.02950000      -0.24300000
N       -3.44170000      -0.58140000      -0.43880000
O       -3.50550000      -2.00530000      -0.42830000
C       -2.37910000      -2.72070000      -0.18320000
C       -1.17790000      -2.14570000       0.04780000
N       -0.01090000      -2.79700000       0.36170000
H        0.76670000       1.65410000      -0.67750000
H       -0.89990000       1.86100000      -0.07520000
H        0.47610000       1.73100000       1.05360000
H       -2.57100000      -3.78730000      -0.19000000
H        0.09480000      -3.75100000       0.05520000
H        0.80250000      -2.20550000       0.25040000
