23
Properties=species:S:1:pos:R:3 gdb_88602=T pbc="F F F"
C       -1.97960000       1.35920000       2.08100000
C       -1.73580000      -0.12400000       2.19650000
O       -0.81440000      -0.71990000       1.27700000
C       -0.48630000      -0.74390000       2.67750000
C        0.72300000       0.02130000       3.09810000
C        1.23670000      -0.00100000       4.52960000
C        0.54910000      -0.76380000       5.64410000
C        2.03610000      -0.66980000       3.43310000
C        2.22960000      -2.16890000       3.34020000
H       -1.05030000       1.91970000       1.96580000
H       -2.61130000       1.57010000       1.21160000
H       -2.50190000       1.72850000       2.97050000
H       -2.64780000      -0.71120000       2.33320000
H       -0.59010000      -1.73520000       3.11810000
H        0.82450000       0.96780000       2.57800000
H        1.63840000       0.95200000       4.86630000
H        0.15800000      -1.73190000       5.32300000
H        1.24510000      -0.95140000       6.46920000
H       -0.29270000      -0.18980000       6.04690000
H        2.91530000      -0.11600000       3.11260000
H        1.36690000      -2.73550000       3.69780000
H        2.41230000      -2.47300000       2.30400000
H        3.09310000      -2.48290000       3.93690000
