9
Properties=species:S:1:pos:R:3 gdb_3817=T pbc="F F F"
N        0.04890000      -1.14140000      -0.00420000
C        0.01550000       0.01490000       0.00260000
C       -0.05460000       1.43130000       0.01130000
C       -1.17830000       2.23170000       0.03080000
N       -0.67480000       3.47970000       0.03090000
N        0.67720000       3.47390000       0.01250000
N        1.05720000       2.23810000       0.00060000
H       -2.23150000       2.01040000       0.04380000
H       -1.16440000       4.36130000       0.04240000
