17
Properties=species:S:1:pos:R:3 gdb_26575=T pbc="F F F"
C        0.11670000       1.52060000      -0.16500000
C       -0.04050000       0.03010000      -0.09510000
C       -1.21150000      -0.64380000       0.04850000
C       -2.58090000      -0.03740000       0.16610000
C       -1.18050000      -2.10210000       0.09800000
N       -2.20950000      -2.83180000       0.22920000
O        0.08560000      -2.69210000      -0.00960000
C        1.16940000      -1.90810000      -0.14830000
N        1.18920000      -0.63870000      -0.19620000
H        0.78300000       1.85500000       0.63780000
H        0.60620000       1.79190000      -1.10680000
H       -0.82450000       2.06260000      -0.08920000
H       -2.56270000       1.05110000       0.12500000
H       -3.22940000      -0.41110000      -0.63290000
H       -3.05250000      -0.34840000       1.10400000
H       -1.95730000      -3.81990000       0.23920000
H        2.07610000      -2.50190000      -0.21920000
