14
Properties=species:S:1:pos:R:3 gdb_21685=T pbc="F F F"
N       -0.02420000       1.39270000       0.08020000
C        0.02710000       0.01000000      -0.02950000
N       -1.05250000      -0.73720000      -0.09950000
O       -0.58990000      -2.05830000      -0.12860000
C        0.76750000      -2.04960000      -0.05720000
N        1.48090000      -3.25290000      -0.06170000
C        1.22230000      -0.77130000       0.00620000
N        2.53690000      -0.27760000       0.02970000
H        0.68190000       1.85270000      -0.48140000
H       -0.94600000       1.76010000      -0.12000000
H        1.08190000      -3.91930000       0.59280000
H        1.48320000      -3.69210000      -0.97850000
H        3.19690000      -1.04310000       0.11930000
H        2.67990000       0.36360000       0.80400000
