21
Properties=species:S:1:pos:R:3 gdb_101806=T pbc="F F F"
N       -0.26750000       1.49390000      -0.45070000
C       -0.10190000       0.18450000       0.18940000
C       -1.35720000      -0.67270000      -0.04440000
N       -1.67510000      -0.81200000      -1.47680000
H       -0.87350000      -1.22540000      -1.95280000
H       -2.74630000      -2.16130000      -1.59950000
H       -1.77300000       0.11980000      -1.87380000
C       -1.25790000      -2.05150000       0.62000000
C       -2.59020000      -2.82220000       0.76150000
C       -3.07080000      -3.67340000      -0.42250000
O       -3.12080000      -3.08590000      -1.62020000
O       -3.42180000      -4.81690000      -0.26850000
H       -0.85770000       2.08970000       0.12290000
H        0.62560000       1.96880000      -0.52610000
H        0.75960000      -0.31370000      -0.27410000
H        0.10580000       0.23760000       1.27060000
H       -2.20870000      -0.14140000       0.40600000
H       -0.51880000      -2.66370000       0.08530000
H       -0.85220000      -1.90540000       1.62750000
H       -2.52220000      -3.51850000       1.59880000
H       -3.39160000      -2.11160000       1.00630000
