16
Properties=species:S:1:pos:R:3 gdb_11679=T pbc="F F F"
O       -0.00170000       1.34210000      -0.18480000
C        0.01240000      -0.05760000       0.02510000
C       -1.37590000      -0.60230000       0.17320000
C       -2.51600000      -0.20230000       1.13340000
C       -3.12000000      -1.06530000       0.01300000
O       -2.30150000      -0.31310000      -0.98240000
C       -1.93330000      -2.06350000       0.14740000
O       -1.61600000      -2.86560000      -0.93630000
H       -0.64820000       1.50830000      -0.88110000
H        0.51730000      -0.59190000      -0.79560000
H        0.58220000      -0.24270000       0.94200000
H       -2.49580000      -0.61040000       2.14700000
H       -2.79070000       0.85090000       1.10010000
H       -4.16280000      -1.24710000      -0.24630000
H       -1.85920000      -2.65320000       1.06340000
H       -1.72190000      -2.29220000      -1.71010000
