16
Properties=species:S:1:pos:R:3 gdb_24059=T pbc="F F F"
C        1.42330000      -0.49170000       0.22750000
C        0.62030000       0.36020000      -0.04170000
C       -0.37970000       1.37480000      -0.36870000
O       -0.30080000       2.54010000       0.44450000
C        0.70830000       3.39670000       0.14210000
C        1.76650000       3.36290000      -0.73530000
C        2.45480000       4.60790000      -0.57720000
C        1.80010000       5.33920000       0.37780000
N        0.72680000       4.58470000       0.81540000
H        2.14100000      -1.23770000       0.46510000
H       -0.30190000       1.65740000      -1.42780000
H       -1.38390000       0.97550000      -0.19840000
H        2.03800000       2.54710000      -1.38390000
H        3.34060000       4.91530000      -1.11120000
H        1.99210000       6.31560000       0.79000000
H        0.04340000       4.85120000       1.50200000
