15
Properties=species:S:1:pos:R:3 gdb_44252=T pbc="F F F"
N       -0.13670000       1.31640000      -0.13570000
C       -0.04400000       0.08700000       0.13090000
O        1.07750000      -0.54810000       0.59890000
C        0.93550000      -1.97280000       0.54230000
C       -0.51290000      -2.19450000       0.07260000
N       -1.09260000      -0.83330000      -0.02610000
C       -1.58450000      -1.03420000      -1.42340000
C       -0.85220000      -2.39540000      -1.42790000
O       -0.59990000      -3.22660000      -2.24270000
H        0.75640000       1.78220000       0.01130000
H        1.67500000      -2.38710000      -0.15070000
H        1.11460000      -2.38210000       1.53960000
H       -1.07300000      -2.87030000       0.72620000
H       -2.67340000      -1.11590000      -1.48640000
H       -1.23230000      -0.27670000      -2.12970000
