15
Properties=species:S:1:pos:R:3 gdb_25037=T pbc="F F F"
O        0.07640000       0.05090000      -0.18760000
C        0.00170000       1.23140000      -0.07660000
O       -1.11730000       1.94660000       0.22880000
C       -0.75720000       3.28590000       0.25610000
C        0.54170000       3.39680000      -0.02310000
O        1.03740000       2.11730000      -0.23540000
C        1.46430000       4.52240000      -0.13770000
C        2.91040000       4.38100000       0.30140000
C        2.58680000       4.49770000      -1.15920000
H       -1.52820000       3.99910000       0.48410000
H        0.98640000       5.47860000       0.04460000
H        3.35840000       5.22830000       0.80730000
H        3.22100000       3.41150000       0.67230000
H        2.68020000       3.60640000      -1.76830000
H        2.80910000       5.42640000      -1.67180000
