21
Properties=species:S:1:pos:R:3 gdb_57813=T pbc="F F F"
C       -0.36830000       1.33410000       0.12490000
C        0.14140000      -0.09770000      -0.13390000
C        0.97610000      -0.17030000      -1.42790000
C        0.89940000      -0.60220000       1.01240000
C        1.54220000      -0.99590000       1.95250000
C        2.28960000      -1.50200000       3.09720000
C        1.62190000      -2.73840000       3.74510000
C        2.47020000      -3.31690000       4.85470000
O        2.08100000      -3.56300000       5.96640000
H        0.47140000       2.02390000       0.25450000
H       -0.97050000       1.68120000      -0.72080000
H       -0.98310000       1.37590000       1.02780000
H       -0.73660000      -0.74580000      -0.26610000
H        1.86110000       0.46910000      -1.35160000
H        1.31260000      -1.19200000      -1.62280000
H        0.38130000       0.16740000      -2.28270000
H        3.31100000      -1.76370000       2.78850000
H        2.39480000      -0.71230000       3.85230000
H        0.63140000      -2.49720000       4.13730000
H        1.50450000      -3.51390000       2.97600000
H        3.53020000      -3.51380000       4.56350000
