19
Properties=species:S:1:pos:R:3 gdb_67457=T pbc="F F F"
O        0.05040000       1.36830000       0.06230000
C        0.02180000      -0.01780000      -0.02370000
C       -1.31930000      -0.82050000       0.04030000
C       -0.89610000      -1.55830000      -1.26210000
C        0.47240000      -0.80360000      -1.29110000
C        1.69570000      -1.58560000      -0.83430000
O        1.52190000      -1.83200000       0.56590000
C        0.59310000      -0.91180000       1.12150000
C       -0.83070000      -1.50580000       1.33940000
H        0.96810000       1.65310000       0.14500000
H       -2.29780000      -0.34250000       0.04570000
H       -0.83640000      -2.64850000      -1.19400000
H       -1.52620000      -1.29640000      -2.11470000
H        0.64540000      -0.20680000      -2.18800000
H        1.81190000      -2.55440000      -1.33320000
H        2.61640000      -1.00420000      -1.00650000
H        1.03990000      -0.39890000       1.97970000
H       -1.30910000      -1.07970000       2.22570000
H       -0.87910000      -2.59640000       1.38990000
