16
Properties=species:S:1:pos:R:3 gdb_1290=T pbc="F F F"
N       -0.28380000       0.38580000       0.74860000
H       -0.20800000      -0.42860000       2.28670000
H        0.66160000       0.23100000       0.40870000
H       -0.91220000       0.07790000       0.01380000
C       -0.48870000       1.81370000       1.05880000
C        0.12780000       2.19520000       2.40890000
C       -0.54580000       1.56530000       3.64960000
C       -0.04050000       0.19320000       4.11420000
O        0.03630000      -0.76920000       3.18980000
O        0.25020000      -0.01680000       5.26500000
H       -0.08600000       2.46870000       0.27310000
H       -1.56980000       1.98900000       1.09570000
H        1.20150000       1.96700000       2.40240000
H        0.05470000       3.28470000       2.49900000
H       -0.41980000       2.22190000       4.51190000
H       -1.62700000       1.48140000       3.47180000
