20
Properties=species:S:1:pos:R:3 gdb_92971=T pbc="F F F"
C        0.08960000       1.52980000       1.18780000
N        0.14740000       0.23150000       0.54910000
C       -1.01710000      -0.12410000      -0.26920000
C       -1.08230000      -1.62030000      -0.14250000
C       -0.25170000      -2.04970000       0.80230000
C        0.50230000      -0.89110000       1.41660000
C        2.01450000      -1.19470000       1.46880000
C        2.83290000      -0.85320000       0.24210000
O        2.48700000      -1.72230000       2.44860000
H        1.03290000       1.73970000       1.70240000
H       -0.05640000       2.31020000       0.43390000
H       -0.72640000       1.61720000       1.92970000
H       -1.95270000       0.33730000       0.10320000
H       -0.89470000       0.21880000      -1.30700000
H       -1.75590000      -2.23210000      -0.72970000
H       -0.10610000      -3.06920000       1.13520000
H        0.19210000      -0.75140000       2.46830000
H        2.90630000       0.23340000       0.13180000
H        3.83040000      -1.28390000       0.33800000
H        2.33720000      -1.21890000      -0.66220000
