11
Properties=species:S:1:pos:R:3 gdb_21713=T pbc="F F F"
N        0.02740000       1.36300000      -0.04800000
C        0.06630000       0.02540000       0.07320000
N        1.15550000      -0.63760000      -0.10590000
C        1.08380000      -2.00060000      -0.08200000
N        0.05590000      -2.76240000      -0.37780000
O        0.51420000      -4.03030000      -0.22340000
N        1.85470000      -3.98010000       0.16120000
N        2.19450000      -2.77670000       0.23940000
H        0.87570000       1.86260000      -0.26290000
H       -0.79740000       1.88300000       0.18960000
H       -0.88980000      -0.44070000       0.33050000
