17
Properties=species:S:1:pos:R:3 gdb_16587=T pbc="F F F"
C       -0.08710000       1.56050000       0.01250000
C        0.07680000       0.05660000      -0.06200000
C        0.59270000      -0.71020000      -1.23930000
N        1.32510000      -0.68510000       0.11910000
C        2.44280000       0.13090000      -0.49770000
C        3.77890000      -0.59390000      -0.43370000
C        1.75220000      -0.00220000      -1.87120000
O        2.11770000       0.15470000      -3.00190000
H        0.61870000       2.11170000      -0.61050000
H       -1.09500000       1.82680000      -0.32040000
H        0.02230000       1.90410000       1.04680000
H       -0.73260000      -0.47370000       0.43900000
H        0.08640000      -1.58580000      -1.63160000
H        2.52710000       1.13640000      -0.07680000
H        3.68830000      -1.61380000      -0.81780000
H        4.51880000      -0.06150000      -1.03790000
H        4.13530000      -0.64670000       0.59870000
