17
Properties=species:S:1:pos:R:3 gdb_64851=T pbc="F F F"
C       -0.36230000       1.62050000       0.02050000
C        0.05930000       0.15660000      -0.07070000
C        0.88910000      -0.23410000      -1.32850000
C        2.06230000      -0.43590000      -0.33680000
O        1.21170000      -0.10340000       0.79100000
C        2.64430000      -1.76460000      -0.25690000
C        3.13630000      -2.86010000      -0.20760000
C       -1.05220000      -0.73780000       0.23490000
C       -1.98010000      -1.46340000       0.47380000
H        0.48410000       2.27000000      -0.22020000
H       -1.18110000       1.82800000      -0.67520000
H       -0.70200000       1.84850000       1.03410000
H        0.55850000      -1.14270000      -1.82760000
H        1.02580000       0.56780000      -2.05490000
H        2.86220000       0.30820000      -0.44110000
H        3.56680000      -3.82970000      -0.15590000
H       -2.79190000      -2.11290000       0.69160000
