18
Properties=species:S:1:pos:R:3 gdb_85536=T pbc="F F F"
C        0.52920000       1.30450000      -0.30740000
C       -0.07130000      -0.00700000       0.18580000
O       -0.18960000      -0.94300000      -0.92040000
C        0.80070000      -1.79550000      -1.26800000
O        0.68360000      -2.46040000      -2.26230000
C        2.02310000      -1.87110000      -0.36100000
C        1.71030000      -1.61380000       1.10100000
N        2.05040000      -0.27620000       1.60570000
C        0.63700000      -0.62970000       1.38300000
H        1.58250000       1.18890000      -0.56920000
H       -0.02550000       1.65730000      -1.18020000
H        0.46780000       2.06040000       0.48140000
H       -1.11680000       0.16310000       0.45730000
H        2.46910000      -2.85330000      -0.52350000
H        2.74640000      -1.12570000      -0.71120000
H        1.81740000      -2.45840000       1.77550000
H        2.26100000      -0.31370000       2.59930000
H        0.01340000      -0.79140000       2.25720000
