19
Properties=species:S:1:pos:R:3 gdb_78922=T pbc="F F F"
C        0.01130000       1.63460000       0.02090000
C        0.04170000       0.11540000       0.01340000
C        1.06080000      -0.65420000      -0.86950000
C        2.47620000      -0.32620000      -0.34160000
C        2.20090000      -0.33040000       1.19090000
C        0.69410000      -0.67090000       1.18430000
C        1.07790000      -1.82860000       0.18360000
C        2.60630000      -1.58740000       0.45420000
O        3.69180000      -2.41870000       0.55410000
H        1.00960000       2.04510000       0.20460000
H       -0.34260000       2.03010000      -0.93790000
H       -0.65690000       2.01550000       0.80170000
H       -0.96040000      -0.29320000      -0.16970000
H        0.91930000      -0.79710000      -1.94040000
H        3.25490000       0.28830000      -0.77300000
H        2.77180000       0.29340000       1.86630000
H        0.18640000      -0.82970000       2.13590000
H        0.54080000      -2.76790000       0.07810000
H        3.66980000      -2.84660000       1.41780000
