22
Properties=species:S:1:pos:R:3 gdb_69504=T pbc="F F F"
C       -0.02590000       1.52160000       0.06220000
C       -0.02310000       0.02020000       0.02100000
C        1.17080000      -0.81940000      -0.37480000
C        0.61040000      -0.97610000       1.02040000
C        1.37570000      -0.68960000       2.28070000
C       -0.64980000      -1.82340000       0.94120000
C       -0.73780000      -3.31860000       1.00860000
N       -1.76760000      -0.94530000       1.38940000
C       -1.25800000      -0.85070000      -0.01060000
H        0.94620000       1.91510000       0.37790000
H       -0.24560000       1.94960000      -0.92350000
H       -0.78220000       1.88430000       0.76570000
H        1.07340000      -1.61590000      -1.10930000
H        2.11400000      -0.28270000      -0.43650000
H        2.05670000       0.15820000       2.15080000
H        0.68890000      -0.44850000       3.09850000
H        1.98310000      -1.54970000       2.58840000
H       -0.62320000      -3.67850000       2.03810000
H       -1.70330000      -3.67860000       0.63670000
H        0.04920000      -3.78340000       0.40490000
H       -2.61930000      -1.51000000       1.35630000
H       -1.91730000      -1.04750000      -0.85010000
