14
Properties=species:S:1:pos:R:3 gdb_42672=T pbc="F F F"
O       -0.00400000      -0.07230000       0.04330000
C       -0.01670000       1.11620000       0.00660000
C       -1.01070000       2.27870000       0.02050000
C       -0.01700000       3.09810000       0.93710000
C       -0.04890000       4.32520000       0.00770000
C       -0.05660000       3.10500000      -0.94070000
C       -0.08660000       3.08640000      -2.37950000
N       -0.11100000       3.09390000      -3.53570000
C        0.95340000       2.29840000      -0.02080000
H       -2.09710000       2.32670000       0.02700000
H        0.00630000       3.04880000       2.02320000
H       -0.95560000       4.93460000       0.01900000
H        0.84510000       4.95270000      -0.01880000
H        2.03800000       2.36830000      -0.05990000
