16
Properties=species:S:1:pos:R:3 gdb_49719=T pbc="F F F"
N       -0.04490000       1.31070000      -0.29250000
C        0.00430000       0.03760000      -0.23940000
N       -1.13130000      -0.71240000      -0.07260000
C       -1.34860000      -2.14840000       0.10840000
C       -1.32190000      -2.63010000       1.57330000
O       -2.69500000      -2.22490000       1.77820000
C       -2.84330000      -1.82090000       0.40000000
C       -2.48350000      -0.35150000       0.16720000
N       -3.12380000       0.72900000       0.19690000
H        0.88480000       1.69960000      -0.43190000
H        0.90780000      -0.57840000      -0.33020000
H       -0.97510000      -2.79220000      -0.68690000
H       -1.21160000      -3.71600000       1.68170000
H       -0.62220000      -2.11640000       2.24130000
H       -3.71730000      -2.24720000      -0.09160000
H       -2.49640000       1.51810000       0.02650000
