15
Properties=species:S:1:pos:R:3 gdb_9438=T pbc="F F F"
C       -0.05340000       1.53800000       0.01800000
C       -0.05030000       0.00500000      -0.01350000
C        0.75320000      -0.64440000      -1.20010000
N        1.71340000      -1.12430000      -0.20680000
C        1.08150000      -0.61490000       0.89450000
O        1.32490000      -0.62070000       2.06770000
C       -1.36600000      -0.56110000       0.20960000
C       -2.45770000      -1.02740000       0.39920000
H        0.95130000       1.92710000      -0.17370000
H       -0.73750000       1.94040000      -0.73430000
H       -0.37610000       1.88800000       1.00150000
H        0.21870000      -1.43590000      -1.73110000
H        1.16380000       0.07820000      -1.91260000
H        2.57140000      -1.64790000      -0.29580000
H       -3.42000000      -1.44050000       0.57600000
