16
Properties=species:S:1:pos:R:3 gdb_52055=T pbc="F F F"
O       -0.13140000      -0.00860000       0.12620000
C       -0.05360000       1.15800000      -0.15310000
C        1.20890000       1.98840000      -0.06420000
C        1.53280000       2.66860000      -1.40670000
C        2.67590000       3.65890000      -1.28710000
C        2.66150000       4.95210000      -2.00110000
O        2.37390000       4.88140000      -0.60670000
C        3.97030000       3.08540000      -0.94820000
N        4.98660000       2.59970000      -0.69040000
H       -0.94730000       1.72380000      -0.50980000
H        1.03960000       2.77110000       0.68830000
H        2.02950000       1.35120000       0.27520000
H        1.78700000       1.91640000      -2.16190000
H        0.65730000       3.21760000      -1.77010000
H        3.60190000       5.43200000      -2.26260000
H        1.81470000       5.17500000      -2.64780000
