20
Properties=species:S:1:pos:R:3 gdb_47498=T pbc="F F F"
O        0.04910000      -0.07460000       0.00580000
C        0.00060000       1.13070000       0.06290000
C       -1.31710000       1.89540000       0.13270000
C       -1.30050000       2.99310000       1.21300000
C       -0.08380000       3.91670000       1.04770000
C        1.20490000       3.11440000       1.07830000
C        2.46050000       3.74900000       1.54340000
N        1.78040000       2.74450000       2.38630000
C        1.25520000       2.00110000       0.03850000
H       -1.47280000       2.36500000      -0.85010000
H       -2.12530000       1.17680000       0.28610000
H       -2.22850000       3.57190000       1.16770000
H       -1.26930000       2.52400000       2.20430000
H       -0.15910000       4.45260000       0.09110000
H       -0.06840000       4.67960000       1.83470000
H        3.41690000       3.43000000       1.13710000
H        2.42430000       4.79370000       1.84320000
H        1.27580000       3.21230000       3.13630000
H        2.12850000       1.36360000       0.18520000
H        1.32110000       2.45200000      -0.96310000
