17
Properties=species:S:1:pos:R:3 gdb_70374=T pbc="F F F"
C       -0.10410000       1.56650000       0.01150000
C        0.04130000       0.04730000       0.04080000
N        1.15000000      -0.50700000      -0.83550000
C        1.66930000      -1.29360000       0.30980000
C        2.18060000      -0.31360000       1.33130000
C        0.70690000      -0.63860000       1.26970000
O       -0.00250000      -1.17390000       2.31800000
C       -1.23850000      -0.59950000      -0.26370000
N       -2.24440000      -1.09590000      -0.54450000
H        0.85610000       2.03570000       0.23510000
H       -0.42890000       1.90220000      -0.97700000
H       -0.84570000       1.89570000       0.74590000
H        0.75980000      -1.11110000      -1.55310000
H        2.01330000      -2.31440000       0.20950000
H        2.66740000      -0.76650000       2.18960000
H        2.58640000       0.64040000       1.00770000
H       -0.00120000      -0.54640000       3.05010000
