20
Properties=species:S:1:pos:R:3 gdb_10399=T pbc="F F F"
O       -0.05470000       1.56600000       0.16390000
C        0.07480000       0.14440000       0.27490000
C       -1.27290000      -0.50080000      -0.00820000
C       -2.34550000      -0.01850000       0.98160000
O       -2.75040000       1.31830000       0.77300000
C       -1.77680000      -0.45680000      -1.48330000
C       -2.08250000      -1.97740000      -1.40270000
C       -1.23580000      -2.05740000      -0.10180000
H        0.76590000       1.97660000       0.45090000
H        0.82480000      -0.22470000      -0.44110000
H        0.41070000      -0.13550000       1.28650000
H       -3.24690000      -0.63340000       0.87480000
H       -1.97210000      -0.17620000       2.01020000
H       -1.93690000       1.83330000       0.68520000
H       -2.61090000       0.22040000      -1.67430000
H       -0.97220000      -0.22660000      -2.18750000
H       -3.14080000      -2.18520000      -1.22620000
H       -1.75190000      -2.59540000      -2.24030000
H       -0.22570000      -2.43800000      -0.28430000
H       -1.65850000      -2.60640000       0.74500000
