20
Properties=species:S:1:pos:R:3 gdb_65552=T pbc="F F F"
C       -0.00870000       1.63130000       0.21900000
C        0.04820000       0.10270000       0.10630000
C        0.84060000      -0.45620000      -1.12230000
C        1.84870000      -1.31650000      -0.33530000
C        0.93290000      -1.93670000       0.74620000
N        0.77940000      -0.51330000       1.27250000
C        2.22200000      -0.35180000       0.81450000
C       -1.39960000      -0.37060000       0.17040000
O       -2.05830000      -0.73300000      -0.76980000
H        0.99290000       2.06570000       0.26480000
H       -0.51990000       2.05440000      -0.65100000
H       -0.54700000       1.93410000       1.12280000
H        0.19620000      -1.03230000      -1.78990000
H        1.32530000       0.33360000      -1.70310000
H        2.58260000      -1.89210000      -0.90210000
H        0.00520000      -2.43000000       0.44170000
H        1.45780000      -2.54720000       1.48350000
H        2.88920000      -0.78270000       1.56430000
H        2.53860000       0.66670000       0.57910000
H       -1.82480000      -0.32300000       1.19830000
