22
Properties=species:S:1:pos:R:3 gdb_118760=T pbc="F F F"
C       -0.11650000       1.44650000       0.04670000
N        0.12620000       0.02200000       0.04790000
C        1.18670000      -0.52450000      -0.82360000
C        1.45260000      -1.60240000       0.26580000
O        0.68010000      -2.77370000       0.06180000
C        2.87870000      -2.03840000       0.54440000
C        3.01220000      -2.87690000       1.82000000
O        4.35840000      -3.24140000       2.08880000
C        0.75820000      -0.59520000       1.23150000
H        0.79440000       2.03960000       0.25570000
H       -0.50740000       1.75690000      -0.92820000
H       -0.86620000       1.69740000       0.80450000
H        0.85450000      -0.87930000      -1.80540000
H        2.04250000       0.15980000      -0.95030000
H       -0.22670000      -2.48610000      -0.09790000
H        3.23330000      -2.62540000      -0.31380000
H        3.52530000      -1.15870000       0.62680000
H        2.68890000      -2.29090000       2.68790000
H        2.35670000      -3.75500000       1.75690000
H        4.64240000      -3.84020000       1.39090000
H        1.48380000       0.06740000       1.73350000
H        0.06610000      -1.00470000       1.97540000
