17
Properties=species:S:1:pos:R:3 gdb_62287=T pbc="F F F"
O       -0.04170000       1.39520000      -0.06460000
C       -0.01200000      -0.01890000      -0.06140000
C        0.82650000      -0.52490000       1.02300000
C        1.55740000      -0.89140000       1.90510000
C       -1.37840000      -0.69060000      -0.12070000
C       -1.80170000      -0.74860000      -1.59290000
C       -0.69450000      -0.09310000      -2.41770000
C        0.28620000      -0.76030000      -1.42060000
C       -0.85410000      -1.77910000      -1.03200000
H        0.82900000       1.71420000       0.19580000
H        2.18850000      -1.22480000       2.69170000
H       -2.09200000      -0.77970000       0.68730000
H       -2.84620000      -0.87570000      -1.84700000
H       -0.61830000      -0.54870000      -3.40870000
H       -0.66310000       0.99720000      -2.49130000
H        1.31240000      -1.00040000      -1.68870000
H       -0.89290000      -2.85360000      -0.94420000
