18
Properties=species:S:1:pos:R:3 gdb_112450=T pbc="F F F"
C        0.29280000       1.36560000       0.10350000
O        0.19050000      -0.05100000       0.07360000
C        0.58180000      -0.61790000      -1.12820000
O        1.98090000      -0.42720000      -1.36130000
C        2.67410000      -1.56730000      -1.01720000
O        3.86990000      -1.63700000      -1.01750000
N        1.75540000      -2.53550000      -0.69810000
C        0.40310000      -2.15550000      -1.07210000
C       -0.66440000      -2.65200000      -0.10530000
H        1.33290000       1.69180000       0.00110000
H       -0.30540000       1.82080000      -0.69960000
H       -0.09900000       1.68870000       1.06940000
H        0.05730000      -0.14860000      -1.97100000
H        2.06540000      -3.49270000      -0.67630000
H        0.16710000      -2.50450000      -2.08880000
H       -0.46150000      -2.29820000       0.90590000
H       -1.65210000      -2.29410000      -0.41020000
H       -0.69060000      -3.74620000      -0.10370000
