19
Properties=species:S:1:pos:R:3 gdb_2928=T pbc="F F F"
C        0.02890000       1.55020000      -0.01020000
C       -0.00500000       0.01960000       0.04300000
C       -1.41550000      -0.57200000      -0.02420000
C       -2.18830000      -0.29110000      -1.34520000
C       -3.00200000      -1.54670000      -1.55080000
C       -2.60930000      -2.53400000      -0.74810000
C       -1.46130000      -2.11740000       0.13900000
H        1.05400000       1.92750000       0.05910000
H       -0.40070000       1.92900000      -0.94360000
H       -0.54260000       1.98650000       0.81700000
H        0.59340000      -0.39140000      -0.78200000
H        0.48040000      -0.32050000       0.96720000
H       -2.00640000      -0.14040000       0.79460000
H       -2.80440000       0.61340000      -1.28700000
H       -1.49920000      -0.13560000      -2.19000000
H       -3.78350000      -1.62080000      -2.29950000
H       -3.02110000      -3.53750000      -0.74120000
H       -0.52280000      -2.58350000      -0.19890000
H       -1.59060000      -2.42020000       1.18480000
