17
Properties=species:S:1:pos:R:3 gdb_74064=T pbc="F F F"
C       -0.01750000       1.45630000       0.09080000
C       -0.00050000      -0.03080000      -0.02550000
C       -0.02670000      -0.79020000      -1.12580000
C        0.00500000      -2.22540000      -0.79070000
N       -0.00510000      -3.25760000      -1.53300000
N        0.05310000      -2.26820000       0.62680000
C        0.05290000      -0.91900000       1.19010000
C        0.09480000      -3.37800000       1.44880000
O        0.09920000      -4.53200000       1.11220000
H        0.87540000       1.82160000       0.61290000
H       -0.05790000       1.93210000      -0.89160000
H       -0.88250000       1.79680000       0.67320000
H       -0.06600000      -0.44240000      -2.15020000
H       -0.04210000      -2.96930000      -2.51100000
H        0.95500000      -0.73010000       1.78940000
H       -0.81180000      -0.75510000       1.84890000
H        0.12540000      -3.06040000       2.51350000
