20
Properties=species:S:1:pos:R:3 gdb_90559=T pbc="F F F"
C       -0.29320000       1.55820000       0.05790000
C        0.15750000       0.10610000      -0.04820000
C        1.48540000      -0.25780000      -0.79550000
C        1.94190000      -1.07390000       0.42140000
C        2.02660000      -0.20560000       1.63460000
O        2.41340000       1.15330000       1.58150000
C        3.73630000       1.38070000       1.43300000
N        4.17150000       2.56500000       1.40820000
C        0.67000000      -0.63290000       1.20060000
H        0.49400000       2.19210000       0.46930000
H       -0.57190000       1.94600000      -0.92850000
H       -1.17290000       1.64430000       0.70580000
H       -0.65040000      -0.49200000      -0.48230000
H        1.31930000      -0.86720000      -1.68550000
H        2.13190000       0.58340000      -1.06170000
H        2.42340000      -2.04430000       0.38260000
H        2.38240000      -0.70460000       2.53430000
H        4.32810000       0.46030000       1.34210000
H        5.18250000       2.55890000       1.28880000
H        0.04210000      -1.20780000       1.87260000
