19
Properties=species:S:1:pos:R:3 gdb_48367=T pbc="F F F"
O       -1.07840000       1.52370000      -0.02980000
C       -0.00890000       1.08540000       0.30770000
C        1.30960000       1.70110000      -0.05830000
C        2.34040000       1.66850000       1.00530000
O        2.37680000       0.73220000      -0.05880000
C        1.30810000       2.73730000      -1.14840000
C        2.65190000       3.36630000      -1.60700000
C        2.13760000       3.29580000      -3.07070000
C        1.08010000       2.25650000      -2.61290000
H        0.09140000       0.16670000       0.92810000
H        3.11120000       2.43700000       0.98880000
H        2.10720000       1.25670000       1.98680000
H        0.57480000       3.50540000      -0.88640000
H        2.91980000       4.34520000      -1.20220000
H        3.47960000       2.67020000      -1.44440000
H        1.67360000       4.23560000      -3.38290000
H        2.85000000       2.98800000      -3.83890000
H        1.43870000       1.23200000      -2.74840000
H        0.06830000       2.33540000      -3.01370000
