19
Properties=species:S:1:pos:R:3 gdb_85769=T pbc="F F F"
C       -0.15660000       1.53800000       0.03670000
C       -0.00210000       0.02400000      -0.03720000
C        0.82110000      -0.57890000      -1.21720000
N        1.75510000      -1.11870000      -0.21850000
C        2.90780000      -1.87310000      -0.40220000
C        3.62540000      -2.25740000       0.86840000
N        3.22930000      -2.15750000      -1.60340000
C        1.07760000      -0.59010000       0.87860000
O        1.30530000      -0.62010000       2.05830000
H        0.80250000       2.04190000      -0.12210000
H       -0.85920000       1.89870000      -0.72080000
H       -0.53280000       1.83420000       1.02010000
H       -0.96660000      -0.47350000       0.10180000
H        0.32930000      -1.35370000      -1.80920000
H        1.28690000       0.15130000      -1.88390000
H        3.89860000      -1.36940000       1.44480000
H        2.97550000      -2.85440000       1.51460000
H        4.52410000      -2.82940000       0.63000000
H        4.08450000      -2.71150000      -1.61760000
