18
Properties=species:S:1:pos:R:3 gdb_68467=T pbc="F F F"
O       -0.03400000       1.38890000      -0.07140000
C       -0.00710000       0.01200000       0.03560000
C        0.23010000      -0.66920000       1.42320000
C       -0.61750000      -1.85060000       0.86030000
C       -1.32710000      -0.82160000      -0.05320000
N        0.16430000      -2.78570000       0.04850000
C        0.99280000      -2.13500000      -0.97970000
C        0.96790000      -0.60790000      -0.94450000
O        1.64310000       0.08310000      -1.67550000
H        0.61870000       1.61200000      -0.75600000
H        1.25580000      -0.87010000       1.74670000
H       -0.29890000      -0.10430000       2.19520000
H       -1.22970000      -2.41840000       1.56210000
H       -2.12360000      -0.29490000       0.47590000
H       -1.68350000      -1.15520000      -1.03090000
H        0.75500000      -3.33620000       0.66040000
H        2.03870000      -2.45420000      -0.91990000
H        0.65470000      -2.41770000      -1.98770000
