12
Properties=species:S:1:pos:R:3 gdb_4249=T pbc="F F F"
N       -0.08830000       1.31230000       0.31710000
C        0.01250000       0.08850000      -0.00990000
N        1.18690000      -0.63210000      -0.26960000
C        1.16160000      -1.95360000      -0.61460000
N        0.11390000      -2.68140000      -0.74220000
C       -1.13200000      -2.07220000      -0.50740000
O       -2.18280000      -2.65460000      -0.59670000
N       -1.09980000      -0.71480000      -0.15340000
H        0.81610000       1.77250000       0.38320000
H        2.06650000      -0.14660000      -0.19530000
H        2.14330000      -2.39210000      -0.78870000
H       -1.99180000      -0.27190000       0.01650000
