22
Properties=species:S:1:pos:R:3 gdb_69777=T pbc="F F F"
C       -0.18180000       1.52310000       0.06410000
C        0.04910000       0.03330000      -0.01910000
C       -0.75440000      -0.91060000       0.86000000
C        0.72540000      -0.77700000       1.07170000
N        1.54080000      -1.84040000       0.51470000
C        2.68830000      -1.30020000      -0.24060000
C        1.45470000      -1.71440000      -0.96220000
C        1.41940000      -2.98730000      -1.77020000
C        0.49620000      -0.57810000      -1.34860000
H        0.69730000       2.08280000      -0.27730000
H       -1.03180000       1.83350000      -0.55580000
H       -0.39650000       1.83440000       1.09160000
H       -1.41000000      -0.46480000       1.60100000
H       -1.12260000      -1.83930000       0.43400000
H        1.10790000      -0.32490000       1.98170000
H        2.89660000      -0.23570000      -0.15110000
H        3.56740000      -1.93850000      -0.25390000
H        2.08240000      -3.74140000      -1.33850000
H        0.40570000      -3.40300000      -1.80140000
H        1.73600000      -2.80060000      -2.80280000
H       -0.35010000      -0.97060000      -1.92640000
H        0.99200000       0.16960000      -1.97910000
