17
Properties=species:S:1:pos:R:3 gdb_8142=T pbc="F F F"
C        0.05860000       1.44240000      -0.01760000
C       -0.03420000      -0.04290000       0.01590000
N       -1.08990000      -0.74430000       0.15890000
C       -0.68710000      -2.13580000       0.09160000
C       -1.44420000      -3.10260000       0.96120000
C       -0.08330000      -2.54720000      -1.24080000
C        0.81620000      -2.08400000      -0.12870000
O        1.15490000      -0.70750000      -0.12530000
H        0.79120000       1.79430000       0.71510000
H        0.39290000       1.78430000      -1.00260000
H       -0.91840000       1.87290000       0.19990000
H       -2.49060000      -3.16160000       0.64510000
H       -1.01270000      -4.10610000       0.89850000
H       -1.42570000      -2.78330000       2.00800000
H       -0.05620000      -3.61020000      -1.45660000
H       -0.23150000      -1.90280000      -2.10120000
H        1.57650000      -2.70970000       0.32140000
