16
Properties=species:S:1:pos:R:3 gdb_16465=T pbc="F F F"
C        0.00840000       1.51690000      -0.01710000
C        0.04390000       0.01140000      -0.03790000
C        0.46750000      -0.74300000      -1.29080000
O        0.35630000      -2.12020000      -0.86990000
C       -0.07920000      -1.99950000       0.45700000
C        0.60920000      -0.80620000       1.17890000
O       -0.59980000      -0.55240000       1.96650000
C       -1.10170000      -0.83880000       0.62020000
H        0.99750000       1.94120000      -0.22190000
H       -0.68350000       1.90910000      -0.77050000
H       -0.31940000       1.86220000       0.96710000
H       -0.19340000      -0.56250000      -2.14770000
H        1.49990000      -0.53010000      -1.59480000
H       -0.22000000      -2.96140000       0.94420000
H        1.57610000      -0.73200000       1.67760000
H       -2.17840000      -0.80360000       0.45170000
