16
Properties=species:S:1:pos:R:3 gdb_16405=T pbc="F F F"
O       -0.02200000       0.03420000      -0.34630000
C        0.01770000       1.19930000      -0.03670000
C       -1.26720000       1.96680000       0.31700000
O       -1.09630000       3.33690000       0.66700000
C        0.24200000       3.80050000       0.63900000
C        0.96320000       3.39290000      -0.67160000
C        1.26920000       2.03650000       0.04600000
C        1.19860000       2.83750000       1.38830000
H       -1.94430000       1.89360000      -0.54370000
H       -1.75110000       1.43740000       1.14800000
H        0.19930000       4.85140000       0.92720000
H        0.37500000       3.38060000      -1.59250000
H        1.87970000       3.96660000      -0.82660000
H        2.15670000       1.45900000      -0.21120000
H        2.15830000       3.30950000       1.61070000
H        0.81780000       2.33620000       2.28150000
