12
Properties=species:S:1:pos:R:3 gdb_28410=T pbc="F F F"
O        0.05800000       1.32420000       0.00790000
C       -0.05770000      -0.00820000       0.00120000
C       -1.22340000      -0.68950000       0.00400000
N       -1.21610000      -2.06440000      -0.00360000
C       -0.09610000      -2.69540000      -0.01340000
O       -0.04040000      -4.03860000      -0.02110000
C        1.22690000      -2.04680000      -0.01720000
O        2.30820000      -2.55370000      -0.02600000
O        1.12900000      -0.64880000      -0.00900000
H        0.99780000       1.54820000       0.00400000
H       -2.17440000      -0.17740000       0.01220000
H       -0.95700000      -4.34930000      -0.01770000
