19
Properties=species:S:1:pos:R:3 gdb_47500=T pbc="F F F"
O        0.03000000      -0.06480000      -0.00100000
C       -0.00600000       1.14230000      -0.01480000
C       -1.30130000       1.94050000      -0.04830000
C       -1.21790000       3.06570000      -1.09550000
O       -0.06270000       3.86760000      -0.89990000
C        1.12020000       3.12580000      -1.04120000
C        1.65240000       2.93170000      -2.44200000
C        2.30970000       3.91020000      -1.48310000
C        1.24510000       2.01370000      -0.00760000
H       -2.13980000       1.26720000      -0.24280000
H       -1.44280000       2.39670000       0.94040000
H       -1.21270000       2.63420000      -2.10790000
H       -2.07660000       3.73690000      -1.01450000
H        2.17210000       2.01090000      -2.68330000
H        1.07110000       3.35470000      -3.25350000
H        2.15010000       4.96640000      -1.66640000
H        3.27750000       3.65840000      -1.06340000
H        1.33470000       2.47010000       0.98820000
H        2.12290000       1.38730000      -0.17950000
