19
Properties=species:S:1:pos:R:3 gdb_81786=T pbc="F F F"
C       -0.00480000       1.53840000       0.00740000
C        0.04100000       0.03890000       0.00440000
C       -0.85140000      -0.85740000       0.81980000
C        0.64090000      -0.95810000       1.01630000
C        1.28810000      -1.76040000      -0.12020000
O        1.10280000      -3.15160000      -0.20620000
C        0.60290000      -0.80680000      -1.12610000
C        0.12240000      -1.04150000      -2.48740000
O        1.30320000      -0.25890000      -2.22510000
H        0.94300000       1.95950000      -0.34140000
H       -0.79560000       1.91230000      -0.65360000
H       -0.20470000       1.92350000       1.01230000
H       -1.38810000      -0.37250000       1.62960000
H       -1.41980000      -1.65630000       0.34520000
H        1.10090000      -0.75410000       1.97580000
H        2.36880000      -1.59580000      -0.16140000
H        0.17440000      -3.33950000      -0.03200000
H        0.30500000      -2.00540000      -2.95970000
H       -0.73030000      -0.48190000      -2.86970000
