19
Properties=species:S:1:pos:R:3 gdb_67717=T pbc="F F F"
C       -0.08300000       1.46050000       0.00550000
C        0.02570000      -0.04320000      -0.03860000
C       -0.40970000      -0.87570000      -1.17750000
C       -0.02880000      -2.15580000      -0.95280000
C       -1.10480000      -3.01740000      -0.27420000
C       -0.43370000      -2.38880000       1.02310000
C       -0.37470000      -0.84510000       1.27460000
C        1.06060000      -0.77090000       0.77830000
C        0.91480000      -2.20960000       0.26940000
H        0.62370000       1.92200000      -0.69310000
H       -1.08970000       1.79520000      -0.26800000
H        0.13690000       1.84820000       1.00520000
H       -1.32290000      -0.62460000      -1.71200000
H       -2.14560000      -2.79090000      -0.51400000
H       -0.94570000      -4.10200000      -0.26660000
H       -0.47310000      -2.97100000       1.94730000
H       -0.84850000      -0.30950000       2.08700000
H        1.92860000      -0.29370000       1.21410000
H        1.71040000      -2.95030000       0.31180000
