14
Properties=species:S:1:pos:R:3 gdb_24037=T pbc="F F F"
N       -0.95830000       0.01880000      -1.45460000
C       -0.43090000       0.49770000      -0.54540000
C        0.23690000       1.10360000       0.60320000
C        1.55490000       1.79200000       0.28630000
C        2.10830000       1.85640000      -0.99330000
N        3.26900000       2.47120000      -1.23010000
C        3.87420000       3.02170000      -0.17900000
C        3.32360000       2.95860000       1.10010000
N        2.16570000       2.34570000       1.33730000
H       -0.44070000       1.83010000       1.06640000
H        0.41300000       0.33140000       1.36090000
H        1.60590000       1.40360000      -1.84300000
H        4.82020000       3.52590000      -0.35680000
H        3.82650000       3.41150000       1.95050000
