21
Properties=species:S:1:pos:R:3 gdb_119437=T pbc="F F F"
C       -0.05270000       1.60710000      -0.07500000
C       -0.03100000       0.07830000      -0.14640000
C       -1.39860000      -0.55240000       0.16210000
C       -1.37910000      -2.05470000       0.10990000
C       -1.55880000      -2.85550000      -1.12940000
C       -2.59120000      -3.03070000      -0.01640000
C       -2.00120000      -3.85530000       1.08140000
O       -2.42170000      -4.74320000       1.76870000
C       -0.73470000      -2.96150000       1.17970000
H        0.93260000       2.03000000      -0.29360000
H       -0.76310000       2.02760000      -0.79550000
H       -0.35020000       1.95290000       0.92120000
H        0.29500000      -0.24380000      -1.14310000
H        0.71340000      -0.31300000       0.55880000
H       -1.73150000      -0.22550000       1.15670000
H       -2.14240000      -0.17430000      -0.55170000
H       -1.94770000      -2.32430000      -1.99320000
H       -0.88260000      -3.66930000      -1.37800000
H       -3.64240000      -2.83590000      -0.19240000
H        0.23340000      -3.41050000       0.93860000
H       -0.68210000      -2.50670000       2.17400000
