20
Properties=species:S:1:pos:R:3 gdb_17844=T pbc="F F F"
C        0.08100000       1.43510000      -0.48680000
C        1.40090000       1.65700000       0.30260000
C        1.31420000       0.18740000       0.78710000
C       -0.15940000       0.12370000       0.31110000
C        2.37130000      -0.89050000       0.39650000
C        3.28510000      -0.28180000       1.49980000
C        1.86410000      -0.36470000       2.13100000
C        1.75310000      -1.78740000       1.50820000
H       -0.68210000       2.21210000      -0.40320000
H        0.26260000       1.24440000      -1.54780000
H        2.28210000       1.94780000      -0.27560000
H        1.27910000       2.37170000       1.12340000
H       -0.86730000       0.26230000       1.13510000
H       -0.46870000      -0.75550000      -0.26050000
H        2.66270000      -1.19260000      -0.61180000
H        4.04290000      -0.94730000       1.92280000
H        3.69080000       0.71560000       1.31660000
H        1.56740000      -0.05720000       3.13620000
H        0.74770000      -2.17670000       1.33280000
H        2.40760000      -2.55440000       1.93180000
