17
Properties=species:S:1:pos:R:3 gdb_14760=T pbc="F F F"
C        0.53240000       0.40090000       0.84110000
O        0.04910000      -0.75820000       0.19370000
C       -1.34560000      -0.93090000       0.32530000
C       -1.70810000      -2.31590000      -0.18720000
O       -1.40670000      -3.38230000       0.70400000
C       -0.04050000      -3.63530000       0.93630000
C        0.47960000      -2.92020000       2.11880000
N        0.87280000      -2.38750000       3.06580000
H        1.60450000       0.45920000       0.64130000
H        0.04590000       1.30890000       0.45320000
H        0.37620000       0.34650000       1.92730000
H       -1.66120000      -0.82980000       1.37530000
H       -1.88800000      -0.17160000      -0.26460000
H       -2.78960000      -2.37720000      -0.33770000
H       -1.21190000      -2.47580000      -1.15640000
H        0.06090000      -4.71030000       1.12370000
H        0.58110000      -3.37350000       0.07150000
