20
Properties=species:S:1:pos:R:3 gdb_108307=T pbc="F F F"
C        0.26820000       1.55280000      -0.06730000
C        0.07240000       0.05170000       0.02770000
N        0.93880000      -0.76340000      -0.88200000
C        1.32810000      -1.67280000       0.22480000
C        0.99750000      -3.13610000       0.04430000
O        1.46300000      -3.64360000      -1.20070000
C        2.65810000      -1.20950000       0.85960000
O        1.96190000      -0.22660000       1.66810000
C        0.67220000      -0.70330000       1.24120000
H        1.31030000       1.80590000       0.14050000
H        0.01480000       1.91040000      -1.07030000
H       -0.37070000       2.07550000       0.65310000
H       -0.99310000      -0.20620000      -0.06580000
H        0.45470000      -1.23970000      -1.63500000
H        1.38250000      -3.72270000       0.89310000
H       -0.09010000      -3.26920000       0.02000000
H        2.42180000      -3.55680000      -1.22050000
H        3.15510000      -1.95530000       1.49650000
H        3.37760000      -0.75110000       0.17400000
H        0.02230000      -0.96680000       2.07960000
