17
Properties=species:S:1:pos:R:3 gdb_128373=T pbc="F F F"
C        0.02180000       1.41750000       0.01750000
N       -0.11370000      -0.03090000      -0.06390000
C        0.56820000      -0.69660000      -1.06020000
N        1.15500000      -0.05260000      -2.04920000
O        1.66500000      -1.05370000      -2.88760000
C        1.37680000      -2.24990000      -2.35760000
C        0.68420000      -2.11930000      -1.20130000
C        0.14310000      -3.18500000      -0.30880000
O        0.53520000      -4.44220000      -0.83210000
H        1.05860000       1.74470000       0.17610000
H       -0.32580000       1.86250000      -0.91770000
H       -0.60240000       1.78390000       0.83550000
H       -0.08780000      -0.50210000       0.82820000
H        1.71680000      -3.11490000      -2.90350000
H        0.52380000      -3.04770000       0.71980000
H       -0.95520000      -3.09830000      -0.24890000
H        0.13770000      -5.13080000      -0.29170000
