16
Properties=species:S:1:pos:R:3 gdb_126031=T pbc="F F F"
C        0.01380000       1.57170000       0.01560000
C        0.02590000       0.04950000       0.06570000
C        0.73920000      -0.63230000      -1.14590000
O        1.53660000      -1.72950000      -0.62080000
C        1.64510000      -1.50170000       0.70320000
C        2.27440000      -1.97050000       1.82880000
N        1.80990000      -1.21710000       2.87800000
N        0.94500000      -0.32980000       2.46730000
N        0.85780000      -0.50020000       1.12600000
H        1.02910000       1.96420000      -0.09110000
H       -0.58840000       1.91670000      -0.83040000
H       -0.41850000       1.97700000       0.93340000
H       -0.99710000      -0.32940000       0.17840000
H        0.04500000      -1.04360000      -1.87960000
H        1.41520000       0.07530000      -1.63920000
H        2.99580000      -2.75710000       1.96070000
