21
Properties=species:S:1:pos:R:3 gdb_40139=T pbc="F F F"
C        0.47020000       1.39980000      -0.27670000
C        1.42240000       0.29010000       0.10480000
C       -0.04960000       0.01980000      -0.01140000
C       -0.95620000      -0.51980000       1.10150000
C       -1.21350000      -1.76800000       0.20410000
C       -0.62740000      -0.99320000      -1.00190000
C       -1.52560000      -0.55520000      -2.18250000
C       -0.53570000      -1.35480000      -3.04800000
O        0.27250000      -1.67580000      -1.89550000
H        0.26040000       2.17270000       0.45610000
H        0.48660000       1.75400000      -1.30340000
H        2.05640000      -0.12520000      -0.67100000
H        1.86210000       0.30810000       1.09700000
H       -0.49040000      -0.70160000       2.07310000
H       -1.85640000       0.08400000       1.25270000
H       -0.55800000      -2.60270000       0.46500000
H       -2.24040000      -2.13130000       0.11370000
H       -2.54990000      -0.93160000      -2.15730000
H       -1.53990000       0.52080000      -2.36610000
H       -0.94130000      -2.25590000      -3.52370000
H        0.02680000      -0.78290000      -3.79520000
