14
Properties=species:S:1:pos:R:3 gdb_132014=T pbc="F F F"
C        0.08010000       1.53070000       0.03750000
C       -0.00740000       0.03520000       0.01030000
C       -0.18370000      -0.67060000      -1.11030000
F       -0.30240000      -0.16430000      -2.31720000
O       -0.26780000      -2.02030000      -1.17630000
C       -0.15850000      -2.67090000       0.02040000
N        0.00970000      -2.14430000       1.15690000
C        0.10180000      -0.73030000       1.25930000
N        0.27130000      -0.13510000       2.37570000
H        1.03470000       1.84230000       0.47220000
H       -0.01790000       1.95710000      -0.96210000
H       -0.70170000       1.94000000       0.68440000
H       -0.23710000      -3.74240000      -0.13030000
H        0.32300000      -0.83170000       3.12100000
