20
Properties=species:S:1:pos:R:3 gdb_31023=T pbc="F F F"
C       -0.01710000       1.63540000      -0.31830000
C       -0.00610000       0.15840000       0.10760000
C       -1.37510000      -0.44170000       0.15400000
C       -2.08030000      -0.93860000       1.20230000
C       -1.83470000      -1.11120000       2.65600000
O       -3.29780000      -1.36430000       0.71690000
C       -3.25910000      -1.09570000      -0.61380000
C       -4.45280000      -1.45140000      -1.42470000
N       -2.15220000      -0.55200000      -1.00330000
H        1.00160000       2.02840000      -0.39320000
H       -0.50270000       1.74600000      -1.29160000
H       -0.56740000       2.24770000       0.40330000
H        0.60630000      -0.41310000      -0.60130000
H        0.47280000       0.05400000       1.08730000
H       -2.56680000      -0.55990000       3.25750000
H       -1.89410000      -2.16470000       2.95310000
H       -0.83930000      -0.74250000       2.91290000
H       -5.34420000      -0.92400000      -1.06890000
H       -4.26850000      -1.17760000      -2.46370000
H       -4.66290000      -2.52480000      -1.36960000
