18
Properties=species:S:1:pos:R:3 gdb_126517=T pbc="F F F"
C        0.05400000       1.62300000      -0.06870000
C        0.00740000       0.09380000      -0.06960000
C        0.65240000      -0.52280000       1.18690000
C        0.63910000      -2.01630000       1.20610000
C       -0.22530000      -2.90750000       1.80750000
N       -1.35750000      -2.71760000       2.55210000
O        0.13710000      -4.14630000       1.53210000
N        1.34780000      -4.01620000       0.66940000
N        1.55070000      -2.79150000       0.54070000
H        1.08620000       1.98770000      -0.02310000
H       -0.40450000       2.03480000      -0.97270000
H       -0.48060000       2.03800000       0.79360000
H       -1.03120000      -0.25120000      -0.14540000
H        0.52470000      -0.29780000      -0.95300000
H        1.68980000      -0.17720000       1.26640000
H        0.13930000      -0.14210000       2.08120000
H       -1.43170000      -1.82040000       3.00720000
H       -1.61700000      -3.49350000       3.14310000
