16
Properties=species:S:1:pos:R:3 gdb_49516=T pbc="F F F"
O        0.00040000      -0.04820000      -0.37220000
C        0.02730000       1.12820000      -0.10590000
C        1.30810000       1.92080000      -0.06030000
C        1.23370000       3.31490000      -0.76160000
N        0.46430000       3.77270000       0.45230000
C        1.43850000       2.87320000       1.17110000
C        2.80410000       3.57290000       0.91240000
O        3.64750000       2.95580000      -0.07170000
C        2.65390000       3.89680000      -0.50520000
H       -0.89560000       1.69650000       0.12190000
H        2.15660000       1.28520000      -0.29550000
H        0.77670000       3.46390000      -1.73950000
H        0.61170000       4.76220000       0.66280000
H        1.19290000       2.56640000       2.18750000
H        3.29710000       4.18230000       1.66250000
H        3.01480000       4.79110000      -1.00210000
