21
Properties=species:S:1:pos:R:3 gdb_97202=T pbc="F F F"
C        0.03710000       1.44400000       0.18930000
N        0.00610000      -0.00760000       0.12320000
C       -1.08540000      -0.60390000      -0.09270000
C       -1.13680000      -2.11680000      -0.07630000
N       -2.11060000      -2.66230000      -1.01590000
C       -2.15360000      -4.11270000      -0.95670000
C       -3.40830000      -2.05060000      -0.78320000
C       -3.29150000      -0.55710000      -1.03010000
O       -2.27890000       0.05290000      -0.22010000
H        0.96420000       1.79730000      -0.27280000
H       -0.81710000       1.93250000      -0.29250000
H        0.06230000       1.76280000       1.23920000
H       -0.13730000      -2.48620000      -0.31100000
H       -1.36920000      -2.42980000       0.96450000
H       -2.46050000      -4.49700000       0.03520000
H       -2.85890000      -4.49250000      -1.70240000
H       -1.16360000      -4.52020000      -1.18400000
H       -4.14100000      -2.46980000      -1.48160000
H       -3.78140000      -2.23650000       0.24460000
H       -3.05620000      -0.37770000      -2.08670000
H       -4.22120000      -0.03950000      -0.78070000
