22
Properties=species:S:1:pos:R:3 gdb_102678=T pbc="F F F"
C       -0.73650000       1.76250000       0.55270000
C       -0.41130000       0.30420000       0.20910000
C       -1.64040000      -0.60050000      -0.00460000
C       -2.34550000      -0.27980000      -1.32560000
O       -3.56510000      -1.00720000      -1.36430000
C       -1.27920000      -2.09780000       0.03780000
C       -1.02460000      -2.61910000       1.46670000
C       -0.64160000      -4.02920000       1.48610000
N       -0.33610000      -5.14380000       1.48400000
H        0.18020000       2.33450000       0.72600000
H       -1.28730000       2.26480000      -0.24820000
H       -1.34450000       1.82590000       1.46190000
H        0.21910000       0.26540000      -0.69000000
H        0.20360000      -0.11130000       1.01620000
H       -2.37000000      -0.40000000       0.79360000
H       -2.53450000       0.80060000      -1.40050000
H       -1.68730000      -0.55840000      -2.16570000
H       -3.97170000      -0.87420000      -2.22520000
H       -2.09870000      -2.67140000      -0.40180000
H       -0.39000000      -2.28170000      -0.57750000
H       -0.23300000      -2.04670000       1.96300000
H       -1.92830000      -2.49750000       2.07550000
