15
Properties=species:S:1:pos:R:3 gdb_25505=T pbc="F F F"
O       -0.33820000       0.18200000       0.63200000
C       -0.06410000       1.35280000       0.51440000
N        1.19040000       1.88520000       0.33920000
C        2.42330000       1.22500000       0.25590000
C        2.56640000      -0.16340000       0.34550000
C        3.84950000      -0.69160000       0.24680000
N        4.96290000       0.02580000       0.07220000
C        4.80500000       1.35000000      -0.01100000
C        3.57850000       1.99320000       0.07290000
H       -0.82620000       2.15580000       0.53600000
H        1.22710000       2.89090000       0.25950000
H        1.70480000      -0.79750000       0.48650000
H        3.98300000      -1.76890000       0.31390000
H        5.71050000       1.93530000      -0.15310000
H        3.52190000       3.07500000      -0.00280000
