15
Properties=species:S:1:pos:R:3 gdb_132743=T pbc="F F F"
C       -0.01020000       1.50570000       0.01780000
C       -0.04460000       0.00490000      -0.01320000
C        0.05790000      -0.70920000      -1.18580000
F        0.20310000      -0.10400000      -2.38190000
C        0.02130000      -2.11290000      -1.15480000
N        0.08040000      -2.84260000      -2.30420000
N       -0.10570000      -2.74920000       0.01260000
C       -0.20260000      -1.97540000       1.09650000
N       -0.18180000      -0.65140000       1.15950000
H        0.12420000       1.92870000      -0.97840000
H       -0.94150000       1.88840000       0.44670000
H        0.80400000       1.84380000       0.66600000
H        0.41920000      -2.39320000      -3.13770000
H        0.26170000      -3.82740000      -2.19740000
H       -0.30850000      -2.50200000       2.04230000
