22
Properties=species:S:1:pos:R:3 gdb_116207=T pbc="F F F"
C        0.05100000       1.64650000       0.03430000
C        0.14610000       0.11920000      -0.06020000
C        0.68150000      -0.53460000       1.21450000
C       -0.20450000      -0.35850000       2.46080000
O        0.19150000      -1.38730000       3.35200000
C        0.38360000      -2.55330000       2.56270000
C        0.84950000      -2.06400000       1.18710000
C        0.71160000      -2.90100000      -0.02790000
N        2.03430000      -2.70410000       0.60140000
H        1.02560000       2.08970000       0.26690000
H       -0.29480000       2.07800000      -0.90970000
H       -0.64930000       1.95850000       0.81590000
H       -0.83990000      -0.30080000      -0.29640000
H        0.79970000      -0.14270000      -0.90280000
H        1.66490000      -0.10120000       1.44780000
H       -0.06860000       0.59750000       2.97170000
H       -1.27090000      -0.45910000       2.18770000
H        1.12950000      -3.18790000       3.04740000
H       -0.56010000      -3.11640000       2.47490000
H        0.31500000      -3.91030000       0.05720000
H        0.50650000      -2.42010000      -0.98000000
H        2.56740000      -2.02050000       0.06610000
