16
Properties=species:S:1:pos:R:3 gdb_18074=T pbc="F F F"
O        0.22770000       0.12040000       0.18380000
C        0.37650000       1.29370000       0.34870000
O        0.96080000       2.08870000      -0.57300000
C        1.02080000       3.47290000      -0.26680000
C        1.88580000       4.03180000       0.82100000
C        3.17170000       3.21000000       0.97660000
C        3.48930000       3.42730000      -0.53650000
C        2.21030000       4.26170000      -0.67880000
H        0.06240000       1.84810000       1.25300000
H        0.06450000       3.97040000      -0.40550000
H        1.48370000       4.71830000       1.55730000
H        3.89820000       3.70360000       1.62440000
H        3.04900000       2.17740000       1.31620000
H        4.39350000       4.01880000      -0.68800000
H        3.53710000       2.53320000      -1.16220000
H        2.10400000       5.15600000      -1.28120000
