15
Properties=species:S:1:pos:R:3 gdb_20784=T pbc="F F F"
C       -0.34020000       1.63420000      -0.19690000
C        0.05260000       0.18560000       0.01330000
C        0.80690000      -0.56950000      -1.16990000
C        1.95150000      -0.70080000      -0.17670000
N        3.12390000      -1.14200000       0.24250000
C        3.10190000      -0.67620000       1.53790000
N        2.01150000      -0.00620000       1.93250000
N        1.30860000      -0.04090000       0.77750000
H        0.49130000       2.20860000      -0.61550000
H       -1.18900000       1.69420000      -0.88520000
H       -0.63680000       2.09540000       0.74950000
H       -0.77460000      -0.39930000       0.42590000
H        0.34040000      -1.50590000      -1.48230000
H        1.00240000       0.05410000      -2.04510000
H        3.92610000      -0.83460000       2.21790000
