21
Properties=species:S:1:pos:R:3 gdb_92819=T pbc="F F F"
C       -0.07140000       1.55670000      -0.11640000
C       -0.01360000       0.02750000      -0.05080000
C        0.93660000      -0.55200000      -1.14960000
C        2.27350000      -0.65930000      -0.43800000
C        2.10490000      -0.64020000       0.88030000
C        2.97140000      -0.42300000       2.09200000
C        1.99930000       0.32530000       2.99620000
C        0.74340000       0.30080000       2.53890000
C        0.64000000      -0.50250000       1.25940000
H        0.92720000       1.99160000      -0.00450000
H       -0.47940000       1.88810000      -1.07710000
H       -0.70460000       1.96820000       0.67610000
H       -1.02770000      -0.36860000      -0.16900000
H        0.58490000      -1.53160000      -1.50490000
H        0.98350000       0.09640000      -2.03290000
H        3.22180000      -0.69720000      -0.96300000
H        3.29300000      -1.36340000       2.56620000
H        3.88590000       0.14040000       1.87280000
H        2.31700000       0.78750000       3.92480000
H       -0.10890000       0.73490000       3.05000000
H        0.19560000      -1.48570000       1.49220000
