19
Properties=species:S:1:pos:R:3 gdb_78983=T pbc="F F F"
C        0.03370000       1.58050000      -0.09940000
C        0.03470000       0.08310000      -0.07930000
C        0.62020000      -0.89850000      -1.15020000
C       -0.46470000      -1.86830000      -0.74300000
C        0.88970000      -1.85540000      -0.01260000
C        0.59610000      -0.82480000       1.09280000
C       -0.84090000      -1.09890000       1.58230000
O       -1.23880000      -0.06800000       2.46950000
C       -1.23980000      -0.84260000       0.10450000
H        1.05500000       1.97770000      -0.14180000
H       -0.50830000       1.96730000      -0.97100000
H       -0.44550000       1.96700000       0.80480000
H        1.12770000      -0.75450000      -2.09510000
H       -0.83240000      -2.73930000      -1.26890000
H        1.54420000      -2.71640000       0.01290000
H        1.38420000      -0.51740000       1.77910000
H       -1.05400000      -2.09500000       1.99780000
H       -2.19850000      -0.09130000       2.53930000
H       -2.25120000      -0.55350000      -0.18590000
