20
Properties=species:S:1:pos:R:3 gdb_10296=T pbc="F F F"
C        0.71910000      -0.34770000       1.31150000
C        0.10160000      -0.13800000      -0.07620000
C        0.97910000      -0.75860000      -1.17020000
C       -1.36710000      -0.65740000      -0.10530000
C       -2.13560000      -0.23440000      -1.37020000
O       -2.12160000       1.18310000      -1.42780000
C       -1.46030000      -2.10620000       0.06280000
C       -1.53950000      -3.30090000       0.17820000
H        1.72850000       0.07360000       1.35400000
H        0.12150000       0.13590000       2.09190000
H        0.78820000      -1.41340000       1.55450000
H        0.02700000       0.93810000      -0.26430000
H        1.03380000      -1.84680000      -1.06120000
H        0.60360000      -0.53710000      -2.17380000
H        1.99760000      -0.36220000      -1.10900000
H       -1.88770000      -0.18190000       0.73790000
H       -1.66810000      -0.68180000      -2.25890000
H       -3.16190000      -0.62390000      -1.30600000
H       -2.57130000       1.45690000      -2.23210000
H       -1.61270000      -4.35390000       0.29380000
