14
Properties=species:S:1:pos:R:3 gdb_47156=T pbc="F F F"
O       -0.21070000       0.13400000      -0.92410000
C       -0.10510000       1.22030000      -0.42770000
O       -1.08740000       2.17070000      -0.47010000
C       -0.64810000       3.34600000       0.21180000
C        0.73550000       3.02970000       0.69490000
C        1.04720000       1.79010000       0.31980000
C        2.28190000       0.96300000       0.52510000
C        3.31750000       1.66150000       1.28140000
N        4.12010000       2.23620000       1.88120000
H       -0.67000000       4.19320000      -0.48480000
H       -1.34320000       3.56490000       1.03180000
H        1.34810000       3.72420000       1.25490000
H        2.01970000       0.02990000       1.03910000
H        2.68500000       0.65380000      -0.44730000
