17
Properties=species:S:1:pos:R:3 gdb_21995=T pbc="F F F"
C       -0.27440000       1.45980000      -0.00160000
N       -0.03100000       0.02850000       0.00820000
C        0.14600000      -0.65940000      -1.17900000
C        0.50780000      -1.95720000      -1.21410000
C        0.74770000      -2.70630000       0.00540000
C        0.56210000      -1.94410000       1.23170000
C        0.19830000      -0.64480000       1.18720000
N        1.09180000      -3.95320000      -0.09230000
O        1.28140000      -4.51580000       1.19750000
H        0.65330000       2.03750000      -0.10770000
H       -0.94000000       1.71700000      -0.82980000
H       -0.76190000       1.75450000       0.93030000
H       -0.03630000      -0.08150000      -2.07690000
H        0.61890000      -2.46310000      -2.16480000
H        0.71060000      -2.43040000       2.18410000
H        0.05610000      -0.05500000       2.08560000
H        1.52000000      -5.42110000       0.97860000
