16
Properties=species:S:1:pos:R:3 gdb_51270=T pbc="F F F"
O        0.03970000       0.02140000       0.03730000
C       -0.00630000       1.20500000       0.14110000
O        1.10760000       1.97570000      -0.11630000
C        0.98240000       3.33240000      -0.11320000
N       -0.11950000       3.96140000      -0.17040000
C        0.18300000       5.37490000      -0.08260000
C        0.77140000       5.84780000       1.22080000
C        1.69080000       5.54990000       0.05860000
C        2.25980000       4.14260000      -0.03220000
H       -0.86900000       1.81190000       0.44510000
H       -0.45240000       6.02790000      -0.66780000
H        0.63670000       6.89190000       1.48210000
H        0.74230000       5.16290000       2.06330000
H        2.21840000       6.36790000      -0.41450000
H        2.86540000       3.83960000       0.82860000
H        2.87260000       3.98490000      -0.92740000
