18
Properties=species:S:1:pos:R:3 gdb_51670=T pbc="F F F"
O       -0.34190000       0.05910000       0.30470000
C       -0.03890000       1.19530000       0.05360000
C        1.38840000       1.67730000      -0.17190000
N        1.43090000       2.73080000      -1.15480000
C        1.44520000       2.36280000      -2.59630000
C        2.57370000       3.38350000      -2.83660000
O        2.12880000       4.74280000      -2.99190000
C        2.32900000       5.02760000      -1.58210000
C        2.65460000       3.55210000      -1.29970000
H       -0.79380000       2.00950000      -0.02630000
H        1.72680000       2.08750000       0.79140000
H        2.02260000       0.80140000      -0.39790000
H        1.77990000       1.32840000      -2.77030000
H        0.50500000       2.53780000      -3.12810000
H        3.38670000       3.12130000      -3.51600000
H        3.16660000       5.72210000      -1.43680000
H        1.42640000       5.41390000      -1.09810000
H        3.50150000       3.28850000      -0.66300000
