12
Properties=species:S:1:pos:R:3 gdb_129790=T pbc="F F F"
N        0.07790000       1.37500000       0.19260000
C       -0.05060000       0.02080000       0.06990000
C       -1.11590000      -0.84980000       0.03660000
N       -2.48120000      -0.94450000       0.03260000
N       -2.86140000      -2.11450000      -0.01640000
O       -1.59970000      -3.04230000      -0.05440000
C       -0.59180000      -2.17780000      -0.01960000
C        0.75780000      -2.08460000      -0.02070000
O        1.07200000      -0.70830000       0.03520000
H        0.95790000       1.75050000      -0.13070000
H       -0.72580000       1.91150000      -0.09660000
H        1.59980000      -2.74770000      -0.05050000
