21
Properties=species:S:1:pos:R:3 gdb_69919=T pbc="F F F"
C        0.02600000       1.49700000      -0.00800000
C       -0.02800000      -0.01200000       0.03060000
C       -0.88960000      -0.72230000       1.04470000
C        0.61290000      -0.85470000       1.11420000
C        1.36470000      -1.98590000       0.32950000
C        1.85030000      -1.15160000      -0.89000000
C        0.39740000      -0.76220000      -1.28820000
C       -0.22770000      -2.14790000      -1.33060000
C        0.34980000      -2.87810000      -0.37030000
H        0.97460000       1.85450000      -0.42650000
H       -0.78150000       1.91050000      -0.62460000
H       -0.07500000       1.92380000       0.99520000
H       -1.34870000      -0.09200000       1.80120000
H       -1.48970000      -1.57550000       0.75190000
H        1.14200000      -0.40110000       1.94560000
H        2.12290000      -2.49740000       0.92270000
H        2.46450000      -0.29160000      -0.60320000
H        2.36710000      -1.74490000      -1.65020000
H        0.26970000      -0.15220000      -2.18350000
H       -1.05490000      -2.43430000      -1.96800000
H        0.08970000      -3.88250000      -0.06050000
