21
Properties=species:S:1:pos:R:3 gdb_62385=T pbc="F F F"
C       -0.14420000       1.52050000      -0.00550000
C       -0.02960000      -0.01340000       0.00090000
C       -1.36550000      -0.56950000      -0.16810000
C       -2.48270000      -0.99470000      -0.30920000
C        1.12830000      -0.61440000      -0.89310000
C        2.10090000      -0.25220000       0.26470000
C        0.87480000      -0.62480000       1.14530000
C        0.76740000      -2.13900000       0.88000000
C        0.96110000      -2.13100000      -0.67740000
H        0.81870000       2.01890000       0.11700000
H       -0.58460000       1.86040000      -0.94780000
H       -0.80260000       1.85150000       0.80340000
H       -3.46610000      -1.37530000      -0.43360000
H        1.27760000      -0.25920000      -1.91370000
H        2.99200000      -0.87670000       0.37230000
H        2.38740000       0.79700000       0.30570000
H        0.76910000      -0.28010000       2.17490000
H        1.55100000      -2.69580000       1.40130000
H       -0.20030000      -2.54830000       1.17680000
H        0.09610000      -2.53610000      -1.20630000
H        1.84920000      -2.68350000      -0.99650000
