16
Properties=species:S:1:pos:R:3 gdb_81756=T pbc="F F F"
C       -0.11080000       1.59100000      -0.04640000
C       -0.01360000       0.07390000      -0.01550000
C        0.71610000      -0.62370000      -1.16810000
O        2.08940000      -0.21670000      -1.12190000
C        1.67370000      -1.28640000      -0.25280000
C        2.34580000      -2.54390000      -0.33890000
N        2.86640000      -3.57640000      -0.35960000
C        1.03970000      -0.59190000       0.97540000
O        1.87960000       0.23080000       1.71880000
H        0.84800000       2.04410000      -0.31260000
H       -0.85260000       1.92000000      -0.78090000
H       -0.40740000       1.97670000       0.93300000
H       -0.99510000      -0.38220000       0.14620000
H        0.34370000      -0.97780000      -2.12210000
H        0.57010000      -1.29440000       1.66600000
H        2.40310000       0.74590000       1.09200000
