18
Properties=species:S:1:pos:R:3 gdb_124991=T pbc="F F F"
C       -0.14060000       1.52780000       0.22770000
C       -0.03660000       0.04940000       0.03870000
C        0.04130000      -0.68990000      -1.12590000
C        0.07070000      -0.31650000      -2.57060000
C        1.49300000      -0.15830000      -3.12100000
O        1.37500000       0.18260000      -4.48990000
N        0.12540000      -1.96940000      -0.67400000
N        0.09330000      -2.03500000       0.66860000
N       -0.00280000      -0.81090000       1.10020000
H        0.84530000       2.00260000       0.29320000
H       -0.68000000       2.00170000      -0.59810000
H       -0.67150000       1.74510000       1.15750000
H       -0.45300000      -1.06430000      -3.17730000
H       -0.46030000       0.62960000      -2.71480000
H        2.02130000       0.61960000      -2.54910000
H        2.04960000      -1.09910000      -2.98310000
H        2.25700000       0.32480000      -4.84570000
H        0.17380000      -2.82330000      -1.20740000
