18
Properties=species:S:1:pos:R:3 gdb_38437=T pbc="F F F"
C       -0.02430000       1.47650000       0.13110000
C        1.48150000       1.59360000      -0.11320000
N        2.11460000       0.90650000       1.03370000
C        1.65000000       0.11170000      -0.12950000
C        0.13220000      -0.09700000       0.02270000
O       -0.30660000      -0.86610000       1.12820000
C       -1.19010000      -1.90110000       0.70600000
C       -1.28950000      -1.74330000      -0.78450000
C       -0.53900000      -0.71790000      -1.16850000
H       -0.35260000       1.82710000       1.11120000
H       -0.65700000       1.89280000      -0.65580000
H        2.00870000       2.34910000      -0.68090000
H        3.12470000       1.00250000       0.92620000
H        2.33990000      -0.51620000      -0.68210000
H       -0.78700000      -2.88270000       1.00070000
H       -2.16420000      -1.78930000       1.20740000
H       -1.89440000      -2.38340000      -1.41400000
H       -0.40070000      -0.34680000      -2.17600000
