25
Properties=species:S:1:pos:R:3 gdb_58863=T pbc="F F F"
C       -0.32330000       1.57410000      -0.20850000
C       -0.02100000       0.07440000      -0.04260000
C       -1.29990000      -0.69940000       0.30640000
C        0.70640000      -0.47470000      -1.25300000
C        0.02740000      -0.95420000      -2.51030000
C        0.89390000      -1.91650000      -1.74260000
C        2.36730000      -1.65510000      -2.06080000
C        2.20040000      -0.18530000      -1.54310000
C        2.59350000       0.96270000      -2.46730000
H        0.58900000       2.15240000      -0.38290000
H       -0.99310000       1.74260000      -1.05920000
H       -0.80780000       1.97800000       0.68710000
H        0.66550000      -0.03160000       0.81130000
H       -2.07250000      -0.56730000      -0.45880000
H       -1.10730000      -1.77160000       0.41290000
H       -1.71610000      -0.33890000       1.25270000
H       -1.04030000      -1.12770000      -2.42840000
H        0.33600000      -0.60080000      -3.49180000
H        0.49050000      -2.83380000      -1.32920000
H        3.06420000      -2.23870000      -1.45470000
H        2.64870000      -1.76560000      -3.11470000
H        2.73090000      -0.07580000      -0.59030000
H        2.06780000       0.91040000      -3.42630000
H        2.37080000       1.93700000      -2.01910000
H        3.66830000       0.93520000      -2.68040000
