18
Properties=species:S:1:pos:R:3 gdb_39160=T pbc="F F F"
C       -0.09410000       1.43480000       0.07260000
C        1.30530000       0.88200000       0.02110000
C        1.90820000       0.52900000       1.38110000
O        0.98070000      -0.37370000       2.03850000
C        0.15020000      -0.86960000       1.09810000
N       -0.50370000      -1.95390000       1.11720000
C       -1.18370000      -2.02530000      -0.19660000
C       -0.48310000      -0.99020000      -1.15230000
C        0.12210000      -0.04590000      -0.13330000
H       -0.48880000       1.79410000       1.01940000
H       -0.43010000       1.98900000      -0.79780000
H        1.97490000       1.15010000      -0.78710000
H        2.86910000       0.01320000       1.26880000
H        2.04480000       1.39190000       2.03960000
H       -1.12010000      -3.04660000      -0.58290000
H       -2.24990000      -1.79430000      -0.07510000
H        0.28970000      -1.49140000      -1.74490000
H       -1.17950000      -0.50850000      -1.84220000
