21
Properties=species:S:1:pos:R:3 gdb_60116=T pbc="F F F"
C        0.12200000       1.55810000       0.14740000
C        0.02370000       0.03630000      -0.02560000
C        0.73340000      -0.45260000      -1.28860000
N        0.55700000      -0.68870000       1.12830000
C       -0.12930000      -0.74310000       2.29960000
N       -1.34290000      -0.39730000       2.50320000
C       -1.63760000      -0.75570000       3.89240000
C       -0.27580000      -1.21850000       4.47870000
O        0.59580000      -1.27060000       3.33110000
H        1.16850000       1.87800000       0.21610000
H       -0.33340000       2.07380000      -0.70430000
H       -0.40090000       1.86640000       1.05570000
H       -1.03520000      -0.23490000      -0.07650000
H        1.80510000      -0.21930000      -1.25230000
H        0.62370000      -1.53400000      -1.40680000
H        0.32090000       0.03890000      -2.17410000
H        1.56050000      -0.73550000       1.22300000
H       -2.04770000       0.10060000       4.43910000
H       -2.39130000      -1.55290000       3.93410000
H        0.14470000      -0.50890000       5.19930000
H       -0.30220000      -2.21130000       4.93490000
