16
Properties=species:S:1:pos:R:3 gdb_54022=T pbc="F F F"
N        0.56790000       0.53170000       0.96750000
C        0.05080000       0.18280000      -0.24890000
N        0.48320000       0.65800000      -1.34760000
N       -1.12740000      -0.67820000      -0.17370000
C       -2.25270000      -0.18520000      -0.81510000
O       -3.32350000      -0.74320000      -0.94200000
C       -1.10310000      -1.90370000       0.56640000
N       -2.08490000      -2.78760000       0.22300000
N       -0.15970000      -2.07810000       1.41460000
H        1.47340000       0.97220000       0.88350000
H        0.51410000      -0.22180000       1.64890000
H       -0.03060000       0.30080000      -2.14770000
H       -2.06580000       0.82290000      -1.21330000
H       -2.89610000      -2.40880000      -0.25470000
H       -2.23410000      -3.54850000       0.86520000
H       -0.22290000      -2.99290000       1.85400000
