12
Properties=species:S:1:pos:R:3 gdb_133433=T pbc="F F F"
F        0.04980000       0.07090000       0.00380000
C        0.00830000       1.39420000       0.01110000
N       -1.12810000       1.96090000       0.02840000
N       -1.13350000       3.31780000       0.03540000
C       -0.02520000       4.15140000       0.02540000
O       -0.10680000       5.35720000       0.03240000
N        1.16950000       3.45080000       0.00660000
C        1.31660000       2.06840000      -0.00220000
N        2.46850000       1.52920000      -0.01960000
H       -2.04190000       3.75260000       0.04900000
H        2.01300000       4.00790000      -0.00130000
H        2.38140000       0.51450000      -0.02360000
