21
Properties=species:S:1:pos:R:3 gdb_70742=T pbc="F F F"
C       -0.05470000       1.52200000       0.02900000
C        0.02540000       0.01170000      -0.00830000
C       -0.80530000      -0.79970000       0.95360000
C        0.68920000      -0.74030000       1.13160000
O        1.38330000      -1.92050000       0.88460000
C        2.56960000      -1.74850000       0.11800000
C        2.28590000      -1.71380000      -1.38450000
C        1.44020000      -0.52510000      -1.84320000
O        0.12640000      -0.53680000      -1.29430000
H        0.83140000       1.98740000      -0.41670000
H       -0.93340000       1.86750000      -0.52560000
H       -0.13670000       1.88350000       1.05830000
H       -1.44880000      -0.28860000       1.66100000
H       -1.18180000      -1.73980000       0.56820000
H        1.09490000      -0.14400000       1.95190000
H        3.10310000      -0.83870000       0.43590000
H        3.20790000      -2.60600000       0.35640000
H        3.24270000      -1.69210000      -1.92480000
H        1.77370000      -2.64140000      -1.66390000
H        1.95250000       0.41990000      -1.60840000
H        1.30820000      -0.56240000      -2.92970000
