16
Properties=species:S:1:pos:R:3 gdb_65854=T pbc="F F F"
O       -0.01410000       1.36960000       0.15690000
C        0.02820000      -0.03610000       0.00910000
C       -1.42870000      -0.55580000      -0.09790000
C       -1.31560000      -1.91730000      -0.79270000
C       -0.07850000      -1.80300000      -1.69080000
O        0.24490000      -2.56960000      -2.55620000
C        0.68320000      -0.52650000      -1.30320000
C        0.70630000      -0.64670000       1.17490000
N        1.25520000      -1.10830000       2.08150000
H        0.88210000       1.69680000       0.29590000
H       -1.92190000      -0.58660000       0.87420000
H       -1.96170000       0.16500000      -0.72600000
H       -1.12380000      -2.72210000      -0.07170000
H       -2.19490000      -2.20730000      -1.37120000
H        0.49140000       0.23350000      -2.07060000
H        1.76000000      -0.69710000      -1.25230000
