21
Properties=species:S:1:pos:R:3 gdb_115667=T pbc="F F F"
C       -0.38230000       1.59270000      -0.25150000
O       -0.45410000       0.44740000       0.56720000
C       -1.29540000      -0.54160000       0.05810000
C       -0.83710000      -1.40830000      -1.14620000
C       -1.45880000      -2.63400000      -0.42720000
C       -1.41390000      -1.83690000       0.92480000
C       -0.25140000      -2.13250000       1.74180000
C        0.70880000      -2.40220000       2.41700000
C        1.87010000      -2.71150000       3.23870000
H        0.27690000       2.30710000       0.24710000
H        0.03060000       1.36450000      -1.24550000
H       -1.37200000       2.05740000      -0.38890000
H       -2.30270000      -0.13320000      -0.12710000
H       -1.20650000      -1.15210000      -2.14140000
H        0.25410000      -1.47260000      -1.16570000
H       -2.48860000      -2.82340000      -0.74050000
H       -0.89900000      -3.56890000      -0.45100000
H       -2.32230000      -1.89070000       1.53260000
H        1.57850000      -2.95560000       4.26650000
H        2.42620000      -3.56850000       2.84180000
H        2.56110000      -1.86220000       3.28480000
