18
Properties=species:S:1:pos:R:3 gdb_26273=T pbc="F F F"
C       -0.01600000       1.54060000      -0.01130000
C       -0.01230000       0.00220000       0.02370000
C        0.75590000      -0.52670000       1.24750000
C       -1.42680000      -0.52780000       0.01950000
N       -2.22050000      -0.20060000       1.04950000
C       -3.45320000      -0.69440000       0.99240000
N       -3.94780000      -1.46540000       0.02210000
C       -3.07160000      -1.72570000      -0.94840000
N       -1.81310000      -1.29420000      -1.01020000
H        1.01080000       1.91870000      -0.01990000
H       -0.52340000       1.91850000      -0.90430000
H       -0.52620000       1.94340000       0.86820000
H        0.45820000      -0.37710000      -0.88810000
H        0.27360000      -0.20140000       2.17360000
H        0.79880000      -1.62030000       1.25000000
H        1.78230000      -0.14770000       1.23940000
H       -4.12250000      -0.44690000       1.81420000
H       -3.41740000      -2.35100000      -1.76940000
