19
Properties=species:S:1:pos:R:3 gdb_36668=T pbc="F F F"
C       -0.11550000      -1.20450000      -0.00170000
C       -0.06110000      -0.00960000       0.11780000
C        0.03790000       1.43860000       0.24920000
C        1.36860000       2.00100000      -0.29730000
C        1.44480000       3.50430000      -0.15940000
C        1.88150000       4.14300000       1.12840000
C        2.78680000       4.22680000      -0.09360000
C        4.02370000       3.50300000      -0.13070000
C        5.06710000       2.90490000      -0.17150000
H       -0.17470000      -2.25960000      -0.10270000
H       -0.80280000       1.91090000      -0.27620000
H       -0.06850000       1.72130000       1.30430000
H        2.20440000       1.53350000       0.23180000
H        1.47230000       1.71520000      -1.35020000
H        0.68370000       4.04560000      -0.71690000
H        1.40060000       5.05680000       1.45870000
H        2.21140000       3.48920000       1.92850000
H        2.81850000       5.19230000      -0.59020000
H        5.98780000       2.37740000      -0.20530000
