15
Properties=species:S:1:pos:R:3 gdb_43408=T pbc="F F F"
O       -0.04170000      -0.10220000       0.14130000
C       -0.07480000       1.10810000       0.08140000
C       -1.27460000       1.91160000      -0.06230000
C       -1.22460000       3.26820000      -0.09440000
N       -0.08590000       3.98880000       0.09700000
C        1.05140000       3.32210000       0.71110000
C        1.24550000       1.94500000       0.04710000
C        2.36460000       1.23460000       0.65370000
N        3.26920000       0.71990000       1.15430000
H       -2.21180000       1.39240000      -0.21220000
H       -2.11420000       3.85720000      -0.29650000
H       -0.18310000       4.97570000       0.27070000
H        1.94450000       3.93830000       0.58780000
H        0.88190000       3.17390000       1.78870000
H        1.47090000       2.09960000      -1.01770000
