19
Properties=species:S:1:pos:R:3 gdb_84667=T pbc="F F F"
O       -0.06230000       1.52970000       0.11550000
C        0.01900000       0.09050000       0.00850000
C        0.88620000      -0.53100000       1.08110000
C        0.58820000      -0.70360000       2.37570000
C       -0.63820000      -0.34680000       3.10950000
C       -1.39290000       0.94370000       2.90590000
C       -2.03330000      -0.33420000       2.42750000
C       -2.21490000      -0.65710000       1.00050000
C       -1.38070000      -0.47330000      -0.02930000
H        0.83840000       1.85030000       0.24530000
H        0.48530000      -0.14770000      -0.95810000
H        1.85820000      -0.88330000       0.74360000
H        1.34070000      -1.19790000       2.98780000
H       -0.65930000      -0.73220000       4.12370000
H       -1.81580000       1.41200000       3.78800000
H       -1.02390000       1.61340000       2.13910000
H       -2.82550000      -0.71900000       3.06150000
H       -3.17500000      -1.11640000       0.77250000
H       -1.72940000      -0.77320000      -1.01340000
