15
Properties=species:S:1:pos:R:3 gdb_124202=T pbc="F F F"
C       -0.00710000       1.49610000       0.04600000
C       -0.01060000       0.04180000       0.01300000
C       -0.01690000      -1.16040000      -0.01430000
C       -0.00930000      -2.61590000      -0.04600000
N       -1.35130000      -3.19880000       0.00810000
N       -2.10780000      -3.20060000       1.09770000
C       -3.19940000      -3.80720000       0.64930000
N       -3.10730000      -4.15810000      -0.65360000
N       -1.92340000      -3.76220000      -1.04940000
H        1.01400000       1.88630000      -0.02150000
H       -0.57940000       1.91200000      -0.78980000
H       -0.44740000       1.87120000       0.97580000
H        0.43230000      -2.99470000      -0.97170000
H        0.55640000      -3.02540000       0.79680000
H       -4.06270000      -4.00210000       1.26430000
