18
Properties=species:S:1:pos:R:3 gdb_56553=T pbc="F F F"
C       -0.20550000       1.44530000      -0.06380000
C        0.04670000      -0.06910000       0.03480000
C        0.77340000      -0.56230000      -1.15020000
N        1.36240000      -0.93240000      -2.07310000
N        0.74140000      -0.46220000       1.25620000
C        2.15660000      -0.16500000       1.40900000
C        0.01470000      -1.19070000       2.18200000
N        0.73340000      -1.63180000       3.28050000
O       -1.18530000      -1.38330000       2.07270000
H        0.72910000       2.01240000      -0.06630000
H       -0.74530000       1.67940000      -0.98520000
H       -0.80940000       1.75830000       0.79080000
H       -0.91860000      -0.58140000       0.08060000
H        2.37170000       0.13480000       2.43790000
H        2.79970000      -1.01300000       1.13550000
H        2.42530000       0.66930000       0.75840000
H        1.70250000      -1.88270000       3.16480000
H        0.19970000      -2.27750000       3.84220000
