19
Properties=species:S:1:pos:R:3 gdb_79254=T pbc="F F F"
C       -0.00010000       1.48480000       0.03960000
C       -0.00530000      -0.01810000      -0.03780000
C        0.72710000      -0.73190000      -1.19400000
C        0.52170000      -2.14680000      -0.66680000
C        0.46480000      -1.97770000       0.83050000
O        0.61370000      -0.60060000       1.13900000
C       -0.82320000      -2.16120000       0.06210000
C       -1.38550000      -0.74560000      -0.02080000
O       -2.19560000      -0.37740000       1.07130000
H        1.01460000       1.86130000       0.19540000
H       -0.39040000       1.91200000      -0.88890000
H       -0.63350000       1.82480000       0.86310000
H        0.24910000      -0.54680000      -2.16030000
H        1.78170000      -0.44630000      -1.25250000
H        0.93540000      -3.02730000      -1.13960000
H        0.87430000      -2.65580000       1.56530000
H       -1.45070000      -3.03790000       0.14420000
H       -1.96610000      -0.55250000      -0.92670000
H       -1.63250000      -0.44940000       1.85320000
