17
Properties=species:S:1:pos:R:3 gdb_29288=T pbc="F F F"
N       -0.09290000       1.43420000      -0.17380000
C        0.00850000       0.04700000      -0.00700000
C       -0.94790000      -0.83350000       0.40170000
O       -0.40970000      -2.09320000       0.52300000
C        0.90040000      -2.00580000       0.17640000
C        1.21320000      -0.72340000      -0.15810000
C        1.69070000      -3.24210000       0.21410000
C        1.39550000      -4.30570000       1.21590000
N        1.08860000      -4.52820000      -0.20310000
H        0.47060000       1.77660000      -0.94130000
H       -1.04620000       1.75090000      -0.29300000
H       -1.99270000      -0.74070000       0.64380000
H        2.18100000      -0.35940000      -0.46740000
H        2.71660000      -3.10760000      -0.11620000
H        2.20820000      -4.90880000       1.61140000
H        0.57580000      -4.12300000       1.90420000
H        0.09280000      -4.38010000      -0.35460000
