17
Properties=species:S:1:pos:R:3 gdb_133851=T pbc="F F F"
O        6.22740000      -0.66310000       0.37780000
C        5.00240000      -0.56700000      -0.21430000
C        3.76020000       0.07380000       0.53690000
C        4.24940000       0.61940000      -0.77840000
C        3.46660000      -0.27700000      -1.77040000
C        2.07560000      -0.42470000      -1.13950000
C        2.57710000      -0.85690000       0.25620000
C        3.60500000      -1.97020000       0.07610000
C        4.24870000      -1.52460000      -1.18410000
H        6.90060000      -0.63950000      -0.31240000
H        3.97760000       0.53530000       1.48870000
H        4.62660000       1.62620000      -0.89640000
H        3.54950000      -0.05540000      -2.83190000
H        1.46840000      -1.19910000      -1.61980000
H        1.51150000       0.51410000      -1.12410000
H        1.85380000      -0.97620000       1.05830000
H        4.82800000      -2.20340000      -1.80040000
