16
Properties=species:S:1:pos:R:3 gdb_62771=T pbc="F F F"
C        0.21090000       1.59460000       0.16310000
C        0.08520000       0.09560000       0.07050000
O       -1.14050000      -0.39240000      -0.40420000
C        1.25640000      -0.82370000      -0.25920000
O        2.55920000      -0.31890000      -0.07280000
C        2.76000000      -0.05710000       1.24750000
N        3.83530000       0.42270000       1.68160000
O        1.63570000      -0.36100000       1.97400000
C        0.63910000      -0.85560000       1.10740000
H        1.17150000       1.90820000       0.57520000
H        0.11640000       2.04300000      -0.83250000
H       -0.58640000       1.99370000       0.79700000
H       -1.21470000      -0.15840000      -1.33710000
H        1.18580000      -1.60450000      -1.00580000
H        3.78400000       0.54860000       2.68940000
H        0.04040000      -1.65650000       1.52110000
