20
Properties=species:S:1:pos:R:3 gdb_12964=T pbc="F F F"
C       -0.04650000       1.56510000      -0.02760000
C        0.09190000       0.05830000       0.07170000
C        1.33530000      -0.73780000      -0.22090000
C        2.58580000      -0.00580000       0.27510000
C        1.99290000      -0.06450000       1.72440000
O        1.78850000       1.12830000       2.45750000
C        0.72060000      -0.72660000       1.19880000
C       -0.02100000      -1.79370000       1.95570000
H        0.80240000       2.08950000       0.41040000
H       -0.15130000       1.87480000      -1.07410000
H       -0.94080000       1.89990000       0.50910000
H       -0.79380000      -0.46360000      -0.29080000
H        1.33990000      -1.55280000      -0.93580000
H        3.50830000      -0.58270000       0.17450000
H        2.75180000       0.99600000      -0.13260000
H        2.56000000      -0.78830000       2.32750000
H        2.64050000       1.42540000       2.79260000
H       -0.58380000      -1.36500000       2.79370000
H       -0.73690000      -2.31310000       1.31020000
H        0.66360000      -2.54510000       2.36730000
