15
Properties=species:S:1:pos:R:3 gdb_34525=T pbc="F F F"
N        0.08310000      -1.09530000       0.01860000
C        0.00770000       0.05730000       0.01260000
C       -0.08420000       1.49780000       0.00520000
N       -1.20740000       2.09050000       0.04120000
C       -1.08400000       3.55170000       0.02580000
C       -0.06210000       3.95190000      -1.08360000
C        1.01290000       3.53990000      -0.04960000
C        0.01480000       3.96790000       1.05270000
O        1.13100000       2.09530000      -0.04310000
H       -2.06920000       4.01250000       0.05780000
H       -0.09940000       3.41140000      -2.03080000
H       -0.04530000       5.02940000      -1.25420000
H        2.03110000       3.92120000      -0.08910000
H        0.04330000       5.04790000       1.20550000
H        0.04610000       3.44170000       2.00810000
