18
Properties=species:S:1:pos:R:3 gdb_16176=T pbc="F F F"
C        0.25780000       1.47820000       0.21920000
C       -0.17030000       0.04510000      -0.12610000
C        0.52460000      -0.49010000      -1.35100000
C        0.25060000       0.07220000      -2.73740000
O        0.81260000      -0.85210000      -3.66110000
C        0.91490000      -2.13570000      -3.05450000
C        0.95390000      -1.87620000      -1.56670000
O        1.90630000      -0.86870000      -1.20520000
H        1.34020000       1.52870000       0.36930000
H       -0.00530000       2.18110000      -0.57790000
H       -0.23020000       1.81920000       1.13670000
H        0.05370000      -0.61880000       0.71540000
H       -1.25520000       0.00450000      -0.28590000
H       -0.83820000       0.17770000      -2.87980000
H        0.72010000       1.04500000      -2.91560000
H        0.04860000      -2.77440000      -3.29540000
H        1.82000000      -2.61610000      -3.44040000
H        0.79360000      -2.67660000      -0.84890000
