18
Properties=species:S:1:pos:R:3 gdb_48789=T pbc="F F F"
O       -0.16970000       0.17250000      -0.67470000
C        0.05600000       1.04280000       0.13700000
C        1.22770000       1.92540000       0.11180000
C        2.09640000       2.04350000      -1.12780000
C        2.71650000       1.43160000       0.07110000
C        3.10210000       2.48700000       1.11880000
C        1.64200000       2.98000000       1.12670000
C        1.08420000       4.33790000       1.30850000
N        0.95390000       3.30990000       2.36820000
H       -0.63590000       1.20670000       0.99510000
H        1.80970000       1.35730000      -1.91750000
H        2.39140000       3.03810000      -1.45210000
H        3.01420000       0.39090000       0.08870000
H        3.37270000       2.05650000       2.08500000
H        3.87150000       3.20210000       0.81090000
H        1.73700000       5.16830000       1.56420000
H        0.20320000       4.61160000       0.73290000
H        0.00870000       2.93420000       2.37710000
