13
Properties=species:S:1:pos:R:3 gdb_3206=T pbc="F F F"
C       -0.03970000       1.59620000      -0.06190000
C        0.03650000       0.07680000      -0.02020000
C        0.71270000      -0.66890000      -1.18650000
O        2.06590000      -0.23270000      -1.21440000
C        1.72640000      -1.31600000      -0.31620000
C        1.10410000      -0.61890000       0.89250000
O        1.26540000      -0.67660000       2.07380000
H        0.91360000       2.01610000      -0.39180000
H       -0.82540000       1.93600000      -0.74430000
H       -0.26330000       1.99080000       0.93370000
H       -0.93510000      -0.36840000       0.23150000
H        0.28080000      -1.05140000      -2.10340000
H        2.28000000      -2.24190000      -0.41510000
