16
Properties=species:S:1:pos:R:3 gdb_126353=T pbc="F F F"
C        0.10790000       1.53450000       0.00760000
C       -0.06940000       0.01970000       0.00400000
C       -1.49470000      -0.45100000       0.01350000
N       -2.47340000       0.38580000       0.02340000
C       -3.76980000      -0.11600000       0.03180000
N       -4.78490000       0.64900000       0.04190000
N       -3.81740000      -1.52870000       0.02790000
N       -2.76980000      -2.35630000       0.01740000
N       -1.60350000      -1.86080000       0.01010000
H        1.17140000       1.78860000       0.00010000
H       -0.36450000       1.98880000      -0.86680000
H       -0.35070000       1.98300000       0.89230000
H        0.41350000      -0.43990000      -0.86910000
H        0.42710000      -0.44570000       0.86630000
H       -5.65880000       0.12250000       0.04700000
H       -4.70530000      -2.01130000       0.03320000
