19
Properties=species:S:1:pos:R:3 gdb_84395=T pbc="F F F"
C        0.70010000       1.52490000      -0.18120000
C        0.12080000       0.12870000       0.11740000
C        0.33060000      -0.81080000      -1.05160000
C        1.21510000      -1.77670000      -0.80170000
C        1.78890000      -1.65960000       0.58840000
O        3.14100000      -1.19290000       0.58440000
C        0.79320000      -0.67490000       1.27100000
C        1.40610000       0.06020000       2.44110000
O        1.17750000       1.20100000       2.75690000
H        1.78230000       1.47800000      -0.34470000
H        0.24660000       1.93270000      -1.09080000
H        0.51660000       2.20930000       0.64690000
H       -0.94810000       0.25260000       0.32750000
H       -0.17030000      -0.65380000      -2.00180000
H        1.56000000      -2.52580000      -1.50510000
H        1.83380000      -2.61360000       1.12320000
H        3.21660000      -0.52970000      -0.11060000
H        0.01200000      -1.30270000       1.72790000
H        2.08720000      -0.57120000       3.05320000
