11
Properties=species:S:1:pos:R:3 gdb_1203=T pbc="F F F"
C        0.16610000       1.48820000      -0.00960000
C       -0.24020000       0.03370000       0.03910000
O       -0.62820000      -0.52900000       1.03770000
C       -0.13700000      -0.68870000      -1.22280000
C       -0.04580000      -1.30270000      -2.26180000
C        0.02750000      -2.03250000      -3.50580000
O        1.03870000      -2.53440000      -3.93460000
H        1.20920000       1.57510000      -0.33250000
H       -0.44320000       2.02600000      -0.74410000
H        0.04120000       1.93220000       0.97890000
H       -0.93710000      -2.09500000      -4.04750000
