17
Properties=species:S:1:pos:R:3 gdb_3346=T pbc="F F F"
C        0.00920000       1.52440000       0.10710000
C        1.43680000       2.07220000      -0.01560000
C        2.00060000       1.80870000      -1.41980000
C        1.85730000       0.35920000      -1.82720000
O        2.25800000      -0.61290000      -0.85790000
C        0.86140000      -0.51340000      -1.17920000
C       -0.04440000      -0.00360000      -0.07070000
H       -0.42680000       1.79760000       1.07390000
H       -0.61660000       1.99980000      -0.66030000
H        1.45060000       3.14780000       0.18870000
H        2.08300000       1.59430000       0.72910000
H        1.46920000       2.42360000      -2.15940000
H        3.05710000       2.09800000      -1.47430000
H        2.16610000       0.12200000      -2.84700000
H        0.49030000      -1.37110000      -1.74140000
H        0.25660000      -0.50400000       0.85800000
H       -1.07340000      -0.32010000      -0.27430000
