23
Properties=species:S:1:pos:R:3 gdb_120065=T pbc="F F F"
C       -0.05880000       1.59660000      -0.08350000
C        0.09560000       0.07370000      -0.05610000
C        0.55720000      -0.46300000       1.30550000
C        0.69620000      -1.97960000       1.33620000
C        1.92670000      -2.65820000       0.68630000
C        2.85810000      -2.35470000       1.91490000
C        3.30620000      -3.82450000       2.03070000
C        1.82100000      -3.90490000       1.63120000
C        1.43620000      -2.66330000       2.50790000
H        0.89010000       2.09500000       0.14480000
H       -0.39160000       1.94890000      -1.06510000
H       -0.79280000       1.93290000       0.65750000
H       -0.86000000      -0.39670000      -0.32350000
H        0.81110000      -0.23660000      -0.82850000
H        1.51350000       0.00490000       1.57480000
H       -0.16110000      -0.15120000       2.07720000
H       -0.25890000      -2.45770000       1.07640000
H        2.23690000      -2.67880000      -0.36070000
H        3.44590000      -1.45060000       2.07670000
H        4.03560000      -4.17720000       1.29380000
H        3.56890000      -4.18300000       3.03160000
H        1.19410000      -4.78190000       1.45990000
H        1.17650000      -2.68480000       3.56880000
