19
Properties=species:S:1:pos:R:3 gdb_41080=T pbc="F F F"
C       -0.00660000       1.64000000       0.06790000
C        1.53570000       1.50400000       0.07960000
C        1.73290000       0.71470000       1.41740000
C        0.91660000      -0.56620000       1.01790000
C        0.01810000       0.10830000      -0.08080000
C        1.41230000       0.22200000      -0.81880000
C        1.49770000      -0.57780000      -2.10770000
O        1.43270000      -1.78880000      -1.28690000
C        1.86520000      -1.04500000      -0.10090000
H       -0.48450000       2.09800000       0.93960000
H       -0.38250000       2.10740000      -0.84710000
H        2.20590000       2.33970000      -0.11560000
H        2.78010000       0.49280000       1.64470000
H        1.29670000       1.24340000       2.26910000
H        0.53100000      -1.18300000       1.83070000
H       -0.80170000      -0.46710000      -0.50310000
H        0.66740000      -0.51310000      -2.81870000
H        2.45620000      -0.52110000      -2.64210000
H        2.89980000      -1.30100000       0.15290000
