14
Properties=species:S:1:pos:R:3 gdb_132767=T pbc="F F F"
C       -0.02930000       1.56560000      -0.02600000
C       -0.00480000       0.06440000      -0.01690000
C       -0.15100000      -0.73110000      -1.14500000
F       -0.32540000      -0.13730000      -2.31980000
N       -0.13390000      -2.05210000      -1.16850000
C        0.04150000      -2.63260000       0.01510000
N        0.19670000      -2.01870000       1.18620000
C        0.17130000      -0.68750000       1.15200000
O        0.32440000      -0.03230000       2.31310000
H        0.90750000       1.97480000       0.36600000
H       -0.17760000       1.94200000      -1.03840000
H       -0.83360000       1.94780000       0.61100000
H        0.06020000      -3.71880000       0.02830000
H        0.43090000      -0.71020000       2.99600000
