23
Properties=species:S:1:pos:R:3 gdb_63181=T pbc="F F F"
C       -0.19490000       1.54910000       0.07630000
C       -0.03710000       0.04100000       0.01010000
C       -1.22410000      -0.71380000       0.58400000
C        0.66120000      -0.61560000      -1.17170000
C        1.30590000       0.19390000      -2.29490000
C        2.75210000       0.56330000      -1.95160000
O        2.84240000       1.14140000      -0.65940000
C        2.60500000       0.19110000       0.36990000
C        1.31930000      -0.60040000       0.20010000
H        0.68620000       2.07550000      -0.29180000
H       -1.06450000       1.87390000      -0.50840000
H       -0.36530000       1.86760000       1.11180000
H       -2.14770000      -0.46010000       0.04960000
H       -1.08540000      -1.79750000       0.51290000
H       -1.37630000      -0.46670000       1.64160000
H        0.23350000      -1.56380000      -1.48400000
H        1.29660000      -0.38750000      -3.22300000
H        0.73850000       1.10980000      -2.49530000
H        3.39550000      -0.33110000      -2.00610000
H        3.14870000       1.30760000      -2.64850000
H        3.44960000      -0.51860000       0.40930000
H        2.60820000       0.76130000       1.30530000
H        1.32940000      -1.53940000       0.74830000
