14
Properties=species:S:1:pos:R:3 gdb_25116=T pbc="F F F"
O        0.04780000       0.01550000      -0.87180000
C        0.01320000       1.09810000      -0.31700000
N       -1.20740000       1.77220000      -0.26110000
C       -1.59510000       2.97400000       0.27230000
C       -0.89370000       3.91620000       0.93300000
C        0.52020000       3.94940000       1.29030000
O        0.98790000       4.90290000       1.89900000
C        1.43810000       2.83580000       0.93170000
C        1.22710000       1.68370000       0.28070000
H       -1.92740000       1.22840000      -0.71780000
H       -2.65360000       3.15460000       0.11130000
H       -1.44200000       4.79290000       1.25800000
H        2.44730000       3.03910000       1.28100000
H        2.06800000       1.01290000       0.13410000
