14
Properties=species:S:1:pos:R:3 gdb_24373=T pbc="F F F"
C        0.06250000       1.46490000       0.14390000
O        1.38720000       2.05370000       0.08200000
C        2.16710000       1.43620000      -0.81840000
C        1.97500000       0.15520000      -1.24300000
O        3.01630000      -0.14600000      -2.08340000
C        3.76020000       0.98480000      -2.09460000
N        3.31330000       1.95920000      -1.35560000
C        0.95980000      -0.69080000      -0.69030000
C        0.05070000      -0.04910000       0.06520000
H       -0.36080000       1.82120000       1.08480000
H       -0.53280000       1.89520000      -0.68030000
H        4.63690000       0.98020000      -2.72200000
H        0.97990000      -1.76680000      -0.81420000
H       -0.72960000      -0.57740000       0.59990000
