20
Properties=species:S:1:pos:R:3 gdb_32424=T pbc="F F F"
C       -0.04890000       1.55020000       0.08430000
C       -0.03540000       0.01340000      -0.00880000
C        0.69480000      -0.51030000      -1.20900000
C        0.17260000      -0.97740000      -2.37330000
O        1.14720000      -1.36920000      -3.23150000
C        2.35020000      -1.13840000      -2.61070000
C        3.57830000      -1.50820000      -3.36060000
C        2.12640000      -0.62030000      -1.36750000
N        3.06220000      -0.33540000      -0.35420000
H        0.96550000       1.96290000       0.12280000
H       -0.54370000       1.98760000      -0.78820000
H       -0.57710000       1.88500000       0.98290000
H        0.42440000      -0.39890000       0.89830000
H       -1.06820000      -0.35220000      -0.02480000
H       -0.84020000      -1.09570000      -2.72400000
H        3.53020000      -1.15130000      -4.39520000
H        4.45940000      -1.05570000      -2.89440000
H        3.74470000      -2.59280000      -3.39530000
H        4.01770000      -0.38250000      -0.68580000
H        2.91200000       0.57380000       0.06720000
