20
Properties=species:S:1:pos:R:3 gdb_101539=T pbc="F F F"
C       -0.83270000       0.77820000      -0.06850000
C        0.28060000      -0.25510000       0.10220000
N        0.81450000      -0.74690000      -1.16820000
C        1.51280000       0.27940000      -1.93270000
C        1.63880000      -1.92810000      -1.00170000
C        1.81260000      -2.72890000      -2.29220000
O        2.85900000      -3.26550000      -2.58250000
C        0.63500000      -2.85960000      -3.13550000
C       -0.31800000      -3.01470000      -3.85420000
H       -0.46560000       1.72110000      -0.48340000
H       -1.61360000       0.39270000      -0.73050000
H       -1.28090000       1.00400000       0.90390000
H        1.08070000       0.16600000       0.74280000
H       -0.12430000      -1.12030000       0.63870000
H        2.38740000       0.69210000      -1.39480000
H        1.86730000      -0.13840000      -2.87950000
H        0.83750000       1.10310000      -2.17250000
H        2.65170000      -1.72870000      -0.60880000
H        1.14300000      -2.60450000      -0.29220000
H       -1.16020000      -3.14890000      -4.48870000
