20
Properties=species:S:1:pos:R:3 gdb_48411=T pbc="F F F"
O       -0.42210000       0.50140000       0.76360000
C       -0.17700000       1.55370000       0.22050000
C        1.21160000       2.04470000      -0.03660000
C        1.40260000       3.07000000      -1.13770000
C        1.21410000       2.47810000      -2.52040000
C       -0.14620000       2.44460000      -3.17770000
C        0.93000000       3.36360000      -3.70360000
C        2.08740000       2.03420000       1.18690000
N        2.27770000       1.04420000       0.13590000
H       -0.99130000       2.23180000      -0.11150000
H        0.70020000       3.90130000      -0.98620000
H        2.41030000       3.49100000      -1.04930000
H        1.85190000       1.61900000      -2.70730000
H       -0.41650000       1.57370000      -3.76420000
H       -0.98160000       2.90070000      -2.65540000
H        0.81450000       4.42780000      -3.52410000
H        1.39670000       3.12380000      -4.65250000
H        2.86400000       2.79050000       1.26600000
H        1.63860000       1.72000000       2.12500000
H        1.82850000       0.17360000       0.42410000
