13
Properties=species:S:1:pos:R:3 gdb_25122=T pbc="F F F"
O       -0.14520000       0.58450000      -1.35670000
C       -0.06930000       1.28860000      -0.38940000
O       -1.27330000       1.68920000       0.16720000
C       -1.53050000       2.46700000       1.23780000
C       -0.73920000       3.10510000       2.11080000
C        0.71840000       3.17220000       2.19620000
O        1.26430000       3.81580000       3.07900000
C        1.57050000       2.45980000       1.21190000
C        1.23450000       1.69710000       0.16530000
H       -2.60820000       2.54130000       1.34540000
H       -1.24930000       3.66690000       2.88580000
H        2.62760000       2.61060000       1.41370000
H        2.02900000       1.26400000      -0.43410000
