18
Properties=species:S:1:pos:R:3 gdb_123858=T pbc="F F F"
C       -0.02120000       1.53240000      -0.05050000
C        1.40770000       2.10260000       0.02940000
C        2.10470000       1.75440000       1.36230000
C        1.87070000       0.31080000       1.67480000
C        0.90950000      -0.45740000       1.06090000
C       -0.03890000      -0.01250000      -0.00240000
N        1.05450000      -1.67180000       1.64270000
N        2.04470000      -1.66320000       2.56460000
N        2.53850000      -0.45800000       2.58190000
H       -0.61090000       1.92090000       0.78910000
H       -0.51370000       1.87300000      -0.96670000
H        2.00020000       1.70070000      -0.80280000
H        1.37980000       3.18900000      -0.10220000
H        3.17690000       1.96840000       1.30580000
H        1.70810000       2.38600000       2.16870000
H       -1.05590000      -0.37710000       0.18450000
H        0.26220000      -0.42140000      -0.97680000
H        0.54510000      -2.52580000       1.48090000
