16
Properties=species:S:1:pos:R:3 gdb_17094=T pbc="F F F"
N       -0.06790000      -1.13670000      -0.14320000
C       -0.02820000       0.01400000      -0.04500000
C        0.03950000       1.47820000       0.04400000
N       -0.42280000       1.98320000       1.37650000
C        0.76300000       2.77330000       1.78830000
C        1.22010000       3.50460000       0.49200000
C        1.48550000       2.03730000       0.03830000
C        1.90610000       1.76500000       1.51460000
H       -0.54840000       1.88830000      -0.78500000
H       -1.22870000       2.58740000       1.24950000
H        0.62560000       3.27270000       2.74630000
H        0.47780000       4.09470000      -0.05490000
H        2.14570000       4.07100000       0.61120000
H        2.10600000       1.77760000      -0.81750000
H        2.89290000       2.16900000       1.74220000
H        1.79240000       0.75410000       1.91000000
