23
Properties=species:S:1:pos:R:3 gdb_90028=T pbc="F F F"
C       -1.11350000       0.94790000      -0.10930000
C        0.02430000      -0.04250000       0.08240000
C        1.29690000       0.09870000      -0.80050000
C        2.15990000      -0.22890000       0.44920000
C        2.85390000      -1.61880000       0.46460000
C        4.18200000      -0.91350000       0.07450000
C        3.55430000       0.41010000       0.58950000
O        3.72690000       1.60120000      -0.14240000
C        0.93660000       0.09150000       1.33560000
H       -0.74830000       1.97950000      -0.04650000
H       -1.59060000       0.82330000      -1.08820000
H       -1.88760000       0.82080000       0.65620000
H       -0.36120000      -1.06630000       0.01680000
H        1.39360000      -0.55990000      -1.66870000
H        1.45460000       1.13190000      -1.12300000
H        2.89510000      -2.04370000       1.47260000
H        2.46680000      -2.37850000      -0.21890000
H        5.11030000      -1.26260000       0.53370000
H        4.30970000      -0.86900000      -1.01070000
H        3.79450000       0.56190000       1.65390000
H        4.61670000       1.93110000       0.01600000
H        0.96850000       1.12530000       1.69900000
H        0.74340000      -0.57180000       2.18440000
