21
Properties=species:S:1:pos:R:3 gdb_101271=T pbc="F F F"
C       -0.21680000       1.52740000      -0.08790000
C       -0.07500000       0.00550000      -0.18320000
C        0.99960000      -0.47200000      -1.17950000
C        2.42450000      -0.06600000      -0.77650000
C        0.91210000      -1.97720000      -1.33100000
N       -0.16700000      -2.50920000      -2.16130000
C        1.23010000      -2.69230000      -2.61030000
C        1.62780000      -1.98020000      -3.80110000
N        1.98190000      -1.41720000      -4.74710000
H        0.69030000       2.00280000       0.29760000
H       -0.43100000       1.96450000      -1.06930000
H       -1.03810000       1.79900000       0.58240000
H        0.14740000      -0.40700000       0.81130000
H       -1.03500000      -0.42560000      -0.49070000
H        0.77120000      -0.03260000      -2.15850000
H        3.15640000      -0.42000000      -1.50890000
H        2.52420000       1.02010000      -0.70950000
H        2.69230000      -0.48610000       0.20070000
H        1.17350000      -2.53950000      -0.43320000
H       -0.52180000      -3.39030000      -1.79910000
H        1.67330000      -3.68130000      -2.53090000
