19
Properties=species:S:1:pos:R:3 gdb_71301=T pbc="F F F"
C        0.00040000       1.45670000       0.04270000
C       -0.03320000      -0.05250000      -0.03950000
C        0.90110000      -0.63470000      -1.10330000
O        1.09280000      -2.02270000      -0.93700000
C       -0.08780000      -2.79930000      -0.84870000
C       -1.18400000      -2.19030000       0.00580000
C       -0.98120000      -1.34070000       1.23840000
O        0.27120000      -0.66470000       1.26050000
C       -1.43190000      -0.70190000      -0.04850000
H        0.99990000       1.79980000       0.32760000
H       -0.25700000       1.90310000      -0.92450000
H       -0.71340000       1.81460000       0.78980000
H        0.49480000      -0.39150000      -2.10120000
H        1.89950000      -0.19230000      -1.02390000
H       -0.50460000      -2.97620000      -1.85680000
H        0.23130000      -3.76770000      -0.44890000
H       -2.09230000      -2.78850000       0.04350000
H       -1.48210000      -1.50550000       2.18560000
H       -2.35620000      -0.21990000      -0.33920000
