19
Properties=species:S:1:pos:R:3 gdb_112776=T pbc="F F F"
C       -0.07340000       1.51010000      -0.17170000
N        0.15040000       0.09170000       0.01480000
C        1.07910000      -0.63660000      -0.87190000
C        1.46480000      -1.53440000       0.32750000
C        2.91800000      -1.91270000       0.51950000
O        3.24170000      -2.81430000      -0.52830000
C        0.82680000      -0.42130000       1.22390000
C        1.80740000       0.49530000       1.83020000
N        2.55830000       1.24540000       2.29060000
H        0.84950000       2.11290000      -0.13500000
H       -0.54850000       1.66430000      -1.14560000
H       -0.75700000       1.88260000       0.59820000
H        0.60480000      -1.10940000      -1.73620000
H        1.93020000      -0.02770000      -1.21810000
H        0.84380000      -2.43150000       0.36510000
H        3.55020000      -1.01350000       0.48760000
H        3.05620000      -2.37590000       1.51010000
H        4.18170000      -3.01020000      -0.47760000
H        0.14240000      -0.75380000       2.01240000
