15
Properties=species:S:1:pos:R:3 gdb_131391=T pbc="F F F"
O        0.09990000       1.31680000       0.16790000
C        0.06980000      -0.03180000       0.04550000
N        0.05700000      -0.65480000      -1.11850000
N        0.02690000      -1.96680000      -0.77840000
C        0.02100000      -2.17740000       0.56300000
C        0.04860000      -0.92270000       1.14340000
N        0.05580000      -0.52840000       2.48060000
C        0.03620000      -1.35770000       3.56430000
N        0.00770000      -2.63250000       3.46510000
H        0.11010000       1.68650000      -0.72330000
H        0.01330000      -2.65680000      -1.50710000
H       -0.00120000      -3.15050000       1.01790000
H        0.07870000       0.46410000       2.64320000
H        0.04800000      -0.79290000       4.50370000
H       -0.00270000      -3.05280000       4.39080000
