14
Properties=species:S:1:pos:R:3 gdb_128994=T pbc="F F F"
N        0.02830000       1.33770000       0.00930000
N        1.27680000       1.85770000      -0.00010000
C        2.10510000       0.82960000      -0.01370000
C        1.39570000      -0.40800000      -0.01350000
C        0.03440000      -0.02710000       0.00190000
C       -0.97690000      -0.99700000       0.00650000
N       -0.67790000      -2.28490000      -0.00340000
C        0.62470000      -2.65580000      -0.01810000
C        1.69280000      -1.77830000      -0.02380000
H       -0.75810000       1.96390000       0.02040000
H        3.17140000       0.99900000      -0.02320000
H       -2.03070000      -0.72660000       0.01830000
H        0.80030000      -3.72760000      -0.02560000
H        2.71330000      -2.14420000      -0.03570000
