16
Properties=species:S:1:pos:R:3 gdb_8766=T pbc="F F F"
C       -0.04960000       1.58690000      -0.02580000
C        0.06260000       0.05200000       0.02690000
C        0.70600000      -0.45860000      -1.20330000
N        1.22220000      -0.84430000      -2.16220000
N        0.74690000      -0.44050000       1.21100000
C        2.14430000      -0.09480000       1.43560000
C        0.10230000      -1.27840000       2.08420000
O        0.58380000      -1.74220000       3.09150000
H        0.93470000       2.05510000      -0.09220000
H       -0.62940000       1.89020000      -0.90090000
H       -0.55260000       1.94300000       0.87660000
H       -0.95030000      -0.36690000       0.05240000
H        2.26310000       0.96940000       1.66460000
H        2.48780000      -0.68130000       2.28730000
H        2.74520000      -0.33880000       0.55350000
H       -0.93790000      -1.48470000       1.76290000
