21
Properties=species:S:1:pos:R:3 gdb_58465=T pbc="F F F"
C        0.32880000       1.26420000       0.39570000
C        0.18750000      -0.20060000      -0.03260000
O       -1.15360000      -0.64600000       0.12660000
C        0.62790000      -0.45870000      -1.48300000
O       -0.24300000       0.22670000      -2.37810000
C        2.15810000      -0.33870000      -1.75150000
C        2.26190000      -1.88010000      -1.68310000
O        2.74380000      -2.25120000      -0.40140000
C        0.71660000      -1.96460000      -1.82940000
H        1.36730000       1.60750000       0.35020000
H       -0.28280000       1.92420000      -0.23180000
H       -0.02560000       1.37820000       1.42300000
H        0.80160000      -0.82720000       0.62190000
H       -1.62830000      -0.31660000      -0.64800000
H       -0.08420000       1.17310000      -2.28700000
H        2.34620000       0.04180000      -2.75830000
H        2.77220000       0.20150000      -1.02810000
H        2.84900000      -2.36220000      -2.47450000
H        2.55770000      -3.18760000      -0.27550000
H        0.18610000      -2.64930000      -1.16400000
H        0.40870000      -2.13950000      -2.86310000
