16
Properties=species:S:1:pos:R:3 gdb_32671=T pbc="F F F"
C        0.00950000       1.56130000      -0.03550000
C       -0.02080000       0.03790000       0.08080000
N       -1.38860000      -0.49890000       0.07430000
C       -2.00430000      -0.88440000       1.20500000
N       -3.21770000      -1.35680000       1.26180000
C       -3.83080000      -1.43570000       0.04280000
N       -3.35250000      -1.10560000      -1.12120000
C       -2.07060000      -0.59600000      -1.18590000
O       -1.50480000      -0.24120000      -2.19410000
H        1.04660000       1.90870000      -0.03240000
H       -0.45800000       1.87700000      -0.97000000
H       -0.51240000       2.03310000       0.80280000
H        0.49940000      -0.41570000      -0.76490000
H        0.45600000      -0.29850000       1.00620000
H       -1.42440000      -0.78800000       2.12160000
H       -4.84580000      -1.82950000       0.06470000
