16
Properties=species:S:1:pos:R:3 gdb_98501=T pbc="F F F"
C       -0.32140000       1.38410000      -0.40060000
O       -0.37850000      -0.02970000      -0.64450000
C        0.79820000      -0.62340000      -0.85070000
O        1.86540000      -0.05370000      -0.84020000
C        0.66620000      -2.10280000      -1.11090000
C        1.51920000      -2.58550000      -2.26140000
N        1.91590000      -2.87370000      -0.89680000
C       -0.57350000      -2.75860000      -0.79730000
C       -1.60600000      -3.32200000      -0.55450000
H        0.28140000       1.59470000       0.48580000
H        0.11490000       1.90270000      -1.25760000
H       -1.35370000       1.69660000      -0.24700000
H        1.15270000      -3.43350000      -2.83100000
H        2.05910000      -1.82560000      -2.81860000
H        2.62530000      -2.19690000      -0.61310000
H       -2.51830000      -3.81660000      -0.32940000
