20
Properties=species:S:1:pos:R:3 gdb_107256=T pbc="F F F"
C       -1.09280000       1.52870000       1.16210000
O       -0.12110000       1.54570000       2.19790000
C        0.55180000       0.35230000       2.33980000
C       -0.05360000      -0.88890000       2.93640000
C        1.13950000      -0.22480000       3.60410000
C        2.46620000      -0.49200000       2.83860000
N        2.18910000      -1.37490000       1.66650000
C        1.91730000       0.08270000       1.59510000
C        2.50650000       0.99180000       0.56500000
H       -1.85460000       0.75890000       1.34300000
H       -1.56680000       2.51290000       1.15480000
H       -0.63780000       1.34430000       0.17910000
H       -0.98760000      -0.69820000       3.45730000
H        0.03760000      -1.85880000       2.46490000
H        1.09660000       0.16690000       4.61140000
H        3.46190000      -0.42240000       3.25860000
H        3.08280000      -1.53470000       1.19950000
H        2.05080000       0.83570000      -0.42050000
H        2.34780000       2.03810000       0.84410000
H        3.58460000       0.82360000       0.46650000
