20
Properties=species:S:1:pos:R:3 gdb_98845=T pbc="F F F"
C        1.22620000       1.70380000      -0.55430000
N        1.18620000       0.25450000      -0.52510000
C        0.39020000      -0.47870000      -1.35650000
O       -0.35590000       0.02840000      -2.17920000
C        0.52760000      -1.98270000      -1.20540000
C       -0.68930000      -2.81110000      -1.65980000
O        0.07330000      -3.49040000      -2.67640000
C        1.26780000      -2.74570000      -2.35840000
C        1.79890000      -1.96690000      -3.54530000
H        2.22870000       2.07110000      -0.80080000
H        0.52690000       2.03040000      -1.32450000
H        0.92380000       2.13020000       0.40860000
H        1.76720000      -0.23180000       0.13710000
H        0.90740000      -2.24950000      -0.21630000
H       -1.09230000      -3.50550000      -0.91330000
H       -1.49410000      -2.20490000      -2.08680000
H        2.04560000      -3.41730000      -1.96840000
H        1.05460000      -1.25600000      -3.90970000
H        2.70890000      -1.42030000      -3.27280000
H        2.04890000      -2.66360000      -4.35140000
