20
Properties=species:S:1:pos:R:3 gdb_115548=T pbc="F F F"
C       -0.39090000       1.55070000      -0.02250000
O       -0.39580000       0.27370000       0.58270000
C       -1.29350000      -0.61770000      -0.00340000
C       -0.91930000      -1.32620000      -1.33540000
C       -1.45440000      -2.65060000      -0.72940000
C       -1.35300000      -2.01500000       0.70200000
C       -0.05420000      -2.38240000       1.43380000
C       -2.50930000      -2.22080000       1.56700000
N       -3.43860000      -2.38220000       2.23640000
H        0.32010000       2.16690000       0.53170000
H       -0.07630000       1.50480000      -1.07530000
H       -1.38470000       2.02110000       0.02360000
H       -2.29930000      -0.17630000      -0.06480000
H       -1.39360000      -0.96540000      -2.24930000
H        0.16420000      -1.34270000      -1.47670000
H       -2.48810000      -2.85530000      -1.01280000
H       -0.85890000      -3.55230000      -0.88140000
H        0.80570000      -2.25030000       0.77330000
H        0.09120000      -1.74550000       2.30830000
H       -0.08960000      -3.42610000       1.75810000
