20
Properties=species:S:1:pos:R:3 gdb_40248=T pbc="F F F"
C        0.02400000       1.50140000       0.00350000
N        1.26240000       0.69840000       0.03740000
C       -0.04680000       0.01970000       0.00230000
C       -0.38350000      -0.73030000       1.27950000
O        0.01230000      -2.08500000       1.18980000
C       -0.76530000      -2.80580000       0.25010000
C       -0.79940000      -2.17260000      -1.14260000
C       -1.86930000      -1.16160000      -1.47620000
C       -0.44860000      -0.70290000      -1.25120000
H       -0.18000000       2.06380000       0.91190000
H       -0.24320000       2.01980000      -0.91440000
H        1.69170000       0.68280000      -0.88530000
H        0.17220000      -0.28950000       2.11000000
H       -1.46330000      -0.65870000       1.50090000
H       -0.31410000      -3.80010000       0.19690000
H       -1.79200000      -2.92600000       0.63630000
H       -0.46480000      -2.81630000      -1.94910000
H       -2.25670000      -1.12890000      -2.48850000
H       -2.60840000      -0.94300000      -0.71110000
H        0.09660000      -0.39110000      -2.13890000
