21
Properties=species:S:1:pos:R:3 gdb_108232=T pbc="F F F"
C       -0.12720000       1.51430000      -0.05740000
C        0.02090000      -0.01140000       0.04510000
C        0.64240000      -0.60110000      -1.18020000
O        1.95370000      -0.15820000      -1.56490000
C        2.29530000      -1.50280000      -2.00240000
C        0.89000000      -2.01040000      -1.70640000
C        0.52430000      -3.37830000      -1.21240000
C       -0.07630000      -1.08040000      -2.42040000
O       -1.41200000      -1.47380000      -2.28130000
H        0.84540000       1.98350000      -0.22940000
H       -0.78310000       1.79630000      -0.88820000
H       -0.55020000       1.92890000       0.86230000
H        0.63150000      -0.26350000       0.92060000
H       -0.95630000      -0.48490000       0.19200000
H        2.64140000      -1.52540000      -3.04340000
H        3.06310000      -1.93800000      -1.35030000
H        1.10140000      -3.64940000      -0.32150000
H       -0.53850000      -3.42560000      -0.96580000
H        0.71950000      -4.13710000      -1.98000000
H        0.19430000      -0.65120000      -3.38900000
H       -1.95570000      -0.67950000      -2.25770000
