16
Properties=species:S:1:pos:R:3 gdb_25228=T pbc="F F F"
O       -0.03600000      -0.03980000       0.00540000
C        0.02280000       1.16920000       0.01000000
C       -1.21950000       2.10790000       0.03140000
C       -0.70360000       3.57700000       0.03070000
C        0.77630000       3.36360000       0.00890000
C        1.18920000       2.04890000      -0.00270000
C        2.61750000       2.03710000      -0.02300000
C        3.00920000       3.35110000      -0.02270000
N        1.87450000       4.15860000      -0.00310000
H       -1.84460000       1.88700000      -0.83850000
H       -1.82020000       1.87920000       0.91630000
H       -1.06040000       4.13840000      -0.84110000
H       -1.03560000       4.13050000       0.91720000
H        3.26960000       1.17850000      -0.03600000
H        3.99160000       3.79640000      -0.03460000
H        1.88510000       5.16450000       0.00110000
