18
Properties=species:S:1:pos:R:3 gdb_38055=T pbc="F F F"
C       -0.05190000       1.46860000      -0.04320000
C        1.46280000       1.94740000       0.00950000
C        2.06660000       0.64270000       0.47880000
N        3.29790000      -0.26600000       0.21010000
C        2.22720000      -1.34880000       0.48810000
C        1.94220000      -1.05800000       1.95430000
C        1.83000000       0.26780000       1.95160000
C        1.22850000      -0.37650000      -0.25830000
O       -0.10740000       0.01140000      -0.04680000
H       -0.60900000       1.81390000       0.83290000
H       -0.54750000       1.84880000      -0.94310000
H        1.81060000       2.23530000      -0.98620000
H        1.58660000       2.79970000       0.68210000
H        3.47760000      -0.26670000      -0.80030000
H        2.44430000      -2.36160000       0.15240000
H        1.87260000      -1.77800000       2.75550000
H        1.64630000       0.96730000       2.75450000
H        1.44590000      -0.41330000      -1.33780000
