14
Properties=species:S:1:pos:R:3 gdb_76044=T pbc="F F F"
O        0.02870000       1.35460000      -0.09830000
C        0.05300000      -0.01060000       0.02970000
C       -0.38460000      -0.69980000       1.32130000
C       -0.80720000       0.07830000       2.44580000
N       -1.13880000       0.70530000       3.35880000
C       -1.28980000      -0.72000000       0.06690000
O       -2.37870000       0.12900000       0.06230000
C       -1.50760000      -1.99500000      -0.65010000
O       -2.55180000      -2.21310000      -1.22000000
H       -0.90010000       1.63290000      -0.10720000
H        0.88400000      -0.47240000      -0.49520000
H        0.11520000      -1.63240000       1.56630000
H       -3.05490000      -0.32330000      -0.46980000
H       -0.66920000      -2.71870000      -0.64470000
