14
Properties=species:S:1:pos:R:3 gdb_46967=T pbc="F F F"
O       -0.01100000       0.05550000      -0.18020000
C        0.00770000       1.23870000       0.00020000
C       -1.18580000       2.14120000       0.31240000
O       -0.77470000       3.46070000      -0.02880000
C        0.61970000       3.57640000      -0.01850000
O        1.09400000       4.14260000       1.23080000
C        1.79040000       3.15630000       1.83950000
N        1.95850000       2.03980000       1.25600000
C        1.24190000       2.16400000      -0.02570000
H       -2.05770000       1.87160000      -0.28780000
H       -1.45160000       2.06020000       1.37610000
H        0.90210000       4.27180000      -0.80870000
H        2.18110000       3.41200000       2.81810000
H        1.89560000       1.93240000      -0.86810000
