17
Properties=species:S:1:pos:R:3 gdb_30903=T pbc="F F F"
N       -0.51990000       1.32900000       0.97040000
C       -0.25920000       0.13540000       0.39340000
C       -0.95350000      -0.60670000      -0.51760000
C       -0.20930000      -1.82420000      -0.72400000
O       -0.44440000      -2.78110000      -1.44920000
C        0.99040000      -1.67800000       0.18000000
C        2.01200000      -2.49340000       0.39740000
N        1.48520000      -5.20430000      -1.55200000
H        0.74400000      -4.50790000      -1.64970000
H        1.84970000      -5.36930000      -2.48630000
H        1.03100000      -6.07000000      -1.27370000
O        0.88480000      -0.44410000       0.83270000
H        0.24050000       1.78960000       1.44420000
H       -1.21850000       1.91880000       0.55180000
H       -1.88200000      -0.33790000      -0.99370000
H        2.79920000      -2.22610000       1.09270000
H        2.06260000      -3.44420000      -0.12760000
