19
Properties=species:S:1:pos:R:3 gdb_91184=T pbc="F F F"
C        0.28550000       1.49750000      -0.26700000
C        0.04610000       0.04800000       0.10570000
O        0.59720000      -0.87120000      -0.87090000
C        1.35880000      -1.57700000       0.14620000
C        2.83820000      -1.32820000       0.08140000
C        3.22260000      -0.43470000       0.99460000
C        2.08270000       0.07460000       1.84800000
C        0.84410000      -0.63990000       1.26030000
O        0.04970000      -1.29430000       2.22280000
H        1.35200000       1.70900000      -0.38260000
H       -0.20570000       1.71820000      -1.22000000
H       -0.13170000       2.17110000       0.49030000
H       -1.02770000      -0.14300000       0.24030000
H        1.06350000      -2.62980000       0.20560000
H        3.48810000      -1.81810000      -0.63440000
H        4.24240000      -0.09210000       1.13800000
H        2.20650000      -0.21360000       2.90000000
H        2.00710000       1.16840000       1.82460000
H       -0.27890000      -0.63470000       2.84330000
