22
Properties=species:S:1:pos:R:3 gdb_7690=T pbc="F F F"
C       -0.02660000       1.51060000      -0.02560000
C        0.01930000      -0.01180000       0.03440000
C        1.08110000      -0.65760000      -0.91910000
C        1.84170000      -1.19200000       0.29980000
C        0.79680000      -0.56770000       1.23990000
C        0.98560000      -2.06470000       1.18770000
C       -0.06580000      -3.01940000       0.65240000
C        1.73270000      -2.62410000       2.38970000
H        0.97490000       1.93910000       0.09620000
H       -0.42590000       1.85520000      -0.98590000
H       -0.66180000       1.91920000       0.76850000
H       -0.99740000      -0.40770000      -0.07330000
H        0.72650000      -1.39840000      -1.64350000
H        1.64450000       0.10710000      -1.46080000
H        2.92210000      -1.19960000       0.39690000
H        0.95530000      -0.01790000       2.16270000
H       -0.59650000      -2.63020000      -0.21880000
H        0.39300000      -3.97130000       0.35960000
H       -0.81470000      -3.24010000       1.42250000
H        1.04410000      -2.84090000       3.21470000
H        2.24640000      -3.55810000       2.13330000
H        2.48480000      -1.91960000       2.75880000
