14
Properties=species:S:1:pos:R:3 gdb_56063=T pbc="F F F"
N        0.17990000       1.02690000      -0.35970000
C       -0.04130000      -0.14700000       0.27000000
O        0.49630000      -0.54720000       1.26860000
O       -1.01600000      -0.84180000      -0.43630000
C       -1.37500000      -2.06040000       0.05200000
N       -2.25630000      -2.70260000      -0.57600000
C       -2.67190000      -4.00600000      -0.09430000
C       -2.02230000      -4.51080000       1.12880000
N       -1.49600000      -4.88000000       2.08910000
H        0.86260000       1.65420000       0.02530000
H       -0.32390000       1.27020000      -1.19370000
H       -0.84290000      -2.35180000       0.95900000
H       -3.75480000      -3.98330000       0.07800000
H       -2.51130000      -4.73900000      -0.89420000
