16
Properties=species:S:1:pos:R:3 gdb_93304=T pbc="F F F"
O        0.30330000       1.08240000      -0.62780000
C        0.05260000      -0.14560000       0.02130000
C        0.41040000      -0.13380000       1.53270000
N       -0.60350000      -0.99620000       2.11980000
C       -1.72960000      -1.16180000       1.35640000
O       -2.75440000      -1.71670000       1.67880000
C       -1.42520000      -0.49110000       0.02910000
C       -2.46610000       0.26240000      -0.68370000
O       -2.02810000      -1.01760000      -1.14090000
H        1.21270000       1.08610000      -0.93990000
H        0.58310000      -0.96930000      -0.47570000
H        1.41910000      -0.51050000       1.72960000
H        0.34730000       0.89950000       1.89870000
H       -0.61380000      -1.24870000       3.09600000
H       -3.47000000       0.28280000      -0.26460000
H       -2.16220000       1.10840000      -1.29460000
