25
Properties=species:S:1:pos:R:3 gdb_103637=T pbc="F F F"
C       -0.03540000       1.45850000      -0.54320000
C       -0.13350000      -0.06830000      -0.43570000
C       -1.48200000      -0.56720000       0.09800000
O       -1.72970000      -0.05260000       1.40010000
C       -2.66960000      -0.44560000      -0.91140000
C       -2.63020000      -1.98600000      -1.14200000
C       -2.07630000      -2.42460000      -2.49540000
C       -1.68620000      -2.11240000       0.10170000
C       -0.49420000      -3.06010000       0.08410000
H        0.92230000       1.75670000      -0.97980000
H       -0.82900000       1.87400000      -1.17420000
H       -0.09720000       1.93820000       0.44010000
H        0.05090000      -0.50840000      -1.42190000
H        0.65920000      -0.43640000       0.22640000
H       -1.73660000       0.90890000       1.34880000
H       -3.57890000      -0.11160000      -0.40610000
H       -2.50500000       0.17660000      -1.79680000
H       -3.59680000      -2.47570000      -0.99080000
H       -1.12270000      -1.94200000      -2.73430000
H       -1.91590000      -3.50750000      -2.53140000
H       -2.77950000      -2.16670000      -3.29520000
H       -2.29890000      -2.33030000       0.98190000
H        0.16250000      -2.89590000      -0.77530000
H        0.10850000      -2.94460000       0.99120000
H       -0.83070000      -4.10210000       0.04550000
