16
Properties=species:S:1:pos:R:3 gdb_54353=T pbc="F F F"
O       -0.25500000      -0.08180000      -0.08730000
C       -0.05110000       1.23150000       0.05500000
O        1.03090000       1.74340000       0.11840000
C       -1.37420000       2.03530000       0.06340000
C       -1.80760000       2.54390000      -1.36130000
C       -3.17010000       1.86390000      -1.09580000
N       -2.57240000       1.13300000       0.05680000
H       -1.23450000      -0.18650000      -0.10730000
H       -3.11260000       1.15260000       0.91590000
C       -1.38180000       3.05380000       1.09650000
C       -1.44140000       3.87850000       1.96870000
H       -1.80640000       3.62460000      -1.48630000
H       -1.22870000       2.07910000      -2.16040000
H       -3.94780000       2.57650000      -0.80220000
H       -3.56390000       1.20630000      -1.87480000
H       -1.46580000       4.60990000       2.73870000
