19
Properties=species:S:1:pos:R:3 gdb_10083=T pbc="F F F"
C       -0.38260000       1.51990000      -0.37840000
C       -0.21950000       0.02090000      -0.12100000
C        0.64600000      -0.30060000       1.09480000
C        0.82440000      -1.80360000       1.33410000
O        1.46020000      -2.43970000       0.24630000
O        1.95850000       0.25390000       0.86300000
C        2.61110000       0.80270000       1.90670000
N        3.82720000       1.12010000       1.79560000
H        0.58600000       1.99280000      -0.56020000
H       -1.01530000       1.69720000      -1.25280000
H       -0.84930000       2.02380000       0.47610000
H       -1.19930000      -0.44430000       0.04220000
H        0.21910000      -0.47670000      -0.99140000
H        0.21580000       0.16160000       1.99600000
H        1.38480000      -1.95190000       2.27200000
H       -0.15530000      -2.27830000       1.45480000
H        2.28040000      -1.95660000       0.08710000
H        1.97670000       0.94130000       2.79350000
H        4.15430000       1.55060000       2.65790000
