16
Properties=species:S:1:pos:R:3 gdb_94129=T pbc="F F F"
C        0.32930000       1.64390000      -0.18690000
C       -0.06180000       0.19850000       0.07400000
C        0.58710000      -0.85000000      -0.86950000
N        1.59410000      -1.14120000       0.17800000
C        0.75960000      -0.52470000       1.22760000
C        1.49730000       0.32810000       2.16940000
N        2.07050000       1.02780000       2.88730000
C       -0.07980000      -1.47940000       1.97150000
N       -0.73860000      -2.26900000       2.49930000
H        1.41030000       1.74590000      -0.31770000
H       -0.16070000       1.99440000      -1.10070000
H        0.02130000       2.29640000       0.63480000
H       -1.13870000       0.09750000       0.20860000
H       -0.08330000      -1.68530000      -1.10320000
H        1.02220000      -0.46410000      -1.79560000
H        1.84780000      -2.11050000       0.33470000
