23
Properties=species:S:1:pos:R:3 gdb_114540=T pbc="F F F"
O        0.05190000       1.39160000      -0.10090000
C        0.04850000      -0.02890000      -0.06110000
C       -1.39610000      -0.50310000       0.02340000
C       -2.24260000      -0.04280000      -1.19120000
C       -3.45950000      -0.95780000      -1.40290000
C       -3.95890000      -1.54700000      -0.04900000
C       -2.82410000      -2.60250000      -0.21290000
C       -2.97060000      -2.39190000      -1.74420000
C       -1.47360000      -2.03370000       0.25240000
H        0.96120000       1.68870000      -0.19650000
H        0.52090000      -0.45270000      -0.96380000
H        0.61350000      -0.40260000       0.80930000
H       -1.82260000      -0.02040000       0.91060000
H       -2.55300000       0.99460000      -1.03450000
H       -1.63270000      -0.04530000      -2.10480000
H       -4.19630000      -0.49820000      -2.06670000
H       -3.96190000      -0.90660000       0.83750000
H       -4.94450000      -2.00780000      -0.15710000
H       -2.99200000      -3.60700000       0.18410000
H       -3.76980000      -3.00820000      -2.16570000
H       -2.07220000      -2.49190000      -2.36290000
H       -0.66860000      -2.54850000      -0.29100000
H       -1.31140000      -2.24570000       1.31610000
