11
Properties=species:S:1:pos:R:3 gdb_21840=T pbc="F F F"
O       -0.05400000       0.00790000       0.09050000
C       -0.01270000       1.18510000      -0.06830000
O        1.08410000       1.91180000       0.33090000
C        1.03750000       3.26360000       0.19840000
C        2.10270000       4.09660000      -0.04770000
N        1.52440000       5.32200000      -0.03570000
N        0.20600000       5.25790000       0.19330000
N       -0.09350000       3.99470000       0.34440000
H       -0.78850000       1.81440000      -0.52730000
H        3.15070000       3.92410000      -0.21530000
H        1.95630000       6.22360000      -0.16460000
