19
Properties=species:S:1:pos:R:3 gdb_71238=T pbc="F F F"
C        0.08510000       1.49360000      -0.12960000
C        0.03170000      -0.00570000       0.02450000
C       -1.33510000      -0.63910000      -0.23140000
O       -1.19250000      -2.05970000      -0.25900000
C       -0.10620000      -2.48370000       0.53930000
C       -0.11640000      -1.79190000       1.93200000
C        0.71730000      -0.67290000       1.28310000
C        1.19390000      -1.63310000       0.17870000
O        0.94940000      -0.70930000      -0.87970000
H        1.09900000       1.85990000       0.05180000
H       -0.20980000       1.78770000      -1.14210000
H       -0.59250000       1.97700000       0.58240000
H       -2.06230000      -0.33010000       0.53550000
H       -1.71780000      -0.33720000      -1.21160000
H       -0.06850000      -3.57170000       0.47940000
H       -1.09310000      -1.56630000       2.36810000
H        0.48190000      -2.34420000       2.66270000
H        1.37020000      -0.01860000       1.86230000
H        2.15650000      -2.14450000       0.12370000
