16
Properties=species:S:1:pos:R:3 gdb_50464=T pbc="F F F"
N       -0.07610000       1.27520000       0.39030000
C       -0.00950000       0.09120000      -0.03480000
O        1.17310000      -0.55440000      -0.24170000
C        1.25270000      -1.73030000      -1.04770000
C        0.03500000      -2.63560000      -0.85460000
C       -1.19420000      -1.74480000      -1.05050000
O       -1.15440000      -0.60770000      -0.19540000
C        0.04690000      -3.76460000      -1.86650000
O        0.05840000      -4.93280000      -1.58410000
H        0.86300000       1.64640000       0.51820000
H        1.34390000      -1.43740000      -2.10400000
H        2.17840000      -2.22720000      -0.74980000
H        0.03310000      -3.06820000       0.14920000
H       -1.26510000      -1.41640000      -2.09810000
H       -2.11760000      -2.26720000      -0.79300000
H        0.04400000      -3.42870000      -2.93010000
