18
Properties=species:S:1:pos:R:3 gdb_117072=T pbc="F F F"
C       -0.50770000       0.70080000       0.03120000
O        0.86780000       0.37320000      -0.03380000
C        1.32700000      -0.39690000       1.03710000
C        0.92990000      -1.87040000       0.93520000
O        0.23050000      -2.30950000       0.05860000
C        1.48330000      -2.77480000       2.03350000
N        2.19250000      -2.26160000       2.95430000
O        1.11040000      -4.05250000       1.84350000
C        1.55690000      -5.01210000       2.79220000
H       -0.74480000       1.23530000       0.96480000
H       -0.71410000       1.36210000      -0.81340000
H       -1.14460000      -0.18720000      -0.04610000
H        2.42060000      -0.33700000       1.04970000
H        0.98930000      -0.01110000       2.01290000
H        2.51700000      -2.93830000       3.64440000
H        2.65200000      -5.06500000       2.81890000
H        1.18010000      -4.78370000       3.79660000
H        1.15500000      -5.97010000       2.46280000
