15
Properties=species:S:1:pos:R:3 gdb_131150=T pbc="F F F"
O        0.18640000       1.33190000       0.40870000
C        0.01590000      -0.02860000       0.11840000
C       -0.52430000      -0.86340000       1.25370000
C       -1.38470000      -0.59010000       0.04660000
C        1.08260000      -0.58660000      -0.74370000
N        1.00580000      -1.73310000      -1.36820000
O        2.19640000      -1.88140000      -2.02880000
N        3.01630000      -0.81150000      -1.82080000
C        2.35370000      -0.00960000      -1.03590000
H       -0.11860000       1.84100000      -0.35120000
H       -0.11430000      -1.85810000       1.38140000
H       -0.74570000      -0.32160000       2.16570000
H       -2.18930000       0.12790000       0.15930000
H       -1.56550000      -1.39530000      -0.65570000
H        2.76910000       0.92600000      -0.69900000
