9
Properties=species:S:1:pos:R:3 gdb_786=T pbc="F F F"
O        0.12030000       1.33100000       0.08870000
C        0.07300000      -0.01190000       0.06810000
N        0.11140000      -0.72740000      -1.05070000
N        0.03980000      -1.98190000      -0.59260000
N       -0.04090000      -2.12850000       0.71710000
C       -0.02190000      -0.87580000       1.17490000
H        0.18390000       1.63640000      -0.82470000
H        0.04720000      -2.77060000      -1.21700000
H       -0.07430000      -0.65090000       2.22660000
