20
Properties=species:S:1:pos:R:3 gdb_118446=T pbc="F F F"
C       -0.20890000       1.38240000       0.16960000
N       -0.14760000      -0.06620000      -0.03550000
H        0.79000000      -1.16240000       0.92180000
H       -1.09150000      -0.44070000      -0.08120000
C        0.58270000      -0.46620000      -1.24850000
C        0.77930000      -1.99030000      -1.30260000
C        1.40800000      -2.43360000      -2.63850000
O        1.42360000      -3.82970000      -2.79180000
C        1.60190000      -2.53120000      -0.11690000
O        1.42280000      -1.92530000       1.05300000
O        2.36110000      -3.46930000      -0.23050000
H        0.80090000       1.76530000       0.34470000
H       -0.63570000       1.92240000      -0.68900000
H       -0.81280000       1.59960000       1.05410000
H        0.07720000      -0.12600000      -2.16590000
H        1.55840000       0.03450000      -1.22120000
H       -0.20720000      -2.47410000      -1.23670000
H        0.81390000      -2.02640000      -3.46490000
H        2.41890000      -1.99930000      -2.71710000
H        1.92810000      -4.15490000      -2.02980000
