16
Properties=species:S:1:pos:R:3 gdb_125860=T pbc="F F F"
C       -0.06070000       1.56690000       0.07090000
C        0.00780000       0.03730000       0.02900000
C        0.80610000      -0.53630000      -1.13510000
C        1.84000000      -1.28200000      -0.70590000
C        1.81490000      -1.27520000       0.75140000
N        2.46170000      -1.74130000       1.80820000
C        1.72550000      -1.21330000       2.83150000
N        0.68000000      -0.46310000       2.48100000
N        0.76300000      -0.52350000       1.13820000
H        0.94390000       1.99650000       0.04250000
H       -0.62900000       1.94210000      -0.78460000
H       -0.55520000       1.89170000       0.98970000
H       -1.00920000      -0.37640000       0.03190000
H        0.53560000      -0.33290000      -2.16210000
H        2.57000000      -1.80190000      -1.30830000
H        1.96360000      -1.38560000       3.87070000
