20
Properties=species:S:1:pos:R:3 gdb_124572=T pbc="F F F"
C        0.04960000       1.52460000      -0.02960000
C        0.05610000      -0.00180000       0.11910000
C        0.62570000      -0.41730000       1.48120000
C       -1.36740000      -0.56160000      -0.12120000
C       -1.43940000      -2.05940000      -0.17730000
N       -1.27670000      -2.67940000      -1.32460000
O       -1.37730000      -4.04060000      -1.04590000
C       -1.60390000      -4.19660000       0.26470000
C       -1.65780000      -2.99130000       0.88310000
H        1.05630000       1.93540000       0.09720000
H       -0.31660000       1.82980000      -1.01530000
H       -0.59550000       1.99040000       0.72540000
H        0.69990000      -0.42140000      -0.66470000
H        0.00800000      -0.02600000       2.29940000
H        0.67520000      -1.50480000       1.58700000
H        1.63820000      -0.02310000       1.61540000
H       -2.03700000      -0.19780000       0.66790000
H       -1.74370000      -0.16860000      -1.07080000
H       -1.70910000      -5.21490000       0.60620000
H       -1.83040000      -2.78450000       1.92600000
