18
Properties=species:S:1:pos:R:3 gdb_78847=T pbc="F F F"
C        0.12300000       1.53770000       0.14060000
C       -0.07340000       0.06850000      -0.06090000
C        0.49930000      -0.77930000      -1.21950000
C       -0.25260000      -2.10410000      -1.10380000
C        0.89080000      -1.79650000      -0.18640000
N        0.34520000      -0.95400000       0.95710000
C       -1.09310000      -0.80400000       0.58730000
C       -1.55850000      -1.89680000      -0.35880000
O       -2.66470000      -1.52850000      -1.16100000
H        1.17580000       1.81410000       0.01720000
H       -0.46580000       2.11800000      -0.57950000
H       -0.18630000       1.82850000       1.14860000
H        1.01780000      -0.42960000      -2.10100000
H       -0.14690000      -2.85210000      -1.87900000
H        1.78540000      -2.38700000      -0.04320000
H       -1.73920000      -0.43200000       1.37450000
H       -1.87110000      -2.79840000       0.17720000
H       -2.40230000      -0.75130000      -1.66800000
