15
Properties=species:S:1:pos:R:3 gdb_48479=T pbc="F F F"
O        0.29870000      -0.10250000      -0.31940000
C        0.17660000       1.02770000       0.05810000
C        1.36750000       2.00740000       0.18320000
O        2.60460000       1.33500000       0.13610000
C        3.26510000       1.59750000      -1.10540000
C        2.45100000       2.68520000      -1.74770000
C        1.36920000       2.93550000      -1.01970000
C        1.24320000       2.78910000       1.49090000
O        0.24100000       3.37110000       1.81430000
H       -0.80020000       1.47700000       0.33320000
H        4.30140000       1.89870000      -0.90140000
H        3.29630000       0.68570000      -1.71940000
H        2.72790000       3.16620000      -2.67690000
H        0.58040000       3.65150000      -1.20220000
H        2.16650000       2.76580000       2.10770000
