16
Properties=species:S:1:pos:R:3 gdb_10623=T pbc="F F F"
C        0.03480000       1.50600000      -0.15020000
C        0.03630000       0.01890000       0.08980000
O        1.28810000      -0.67130000       0.06510000
C        0.56160000      -0.65320000       1.30500000
C        1.23530000       0.06280000       2.46010000
N        2.34010000      -0.75880000       2.94390000
C       -0.04240000      -1.93160000       1.65930000
N       -0.56690000      -2.92230000       1.93970000
H        0.86570000       2.00730000       0.34760000
H        0.11630000       1.70000000      -1.22450000
H       -0.90600000       1.94430000       0.19800000
H       -0.75790000      -0.52120000      -0.42790000
H        1.52210000       1.07030000       2.12790000
H        0.50620000       0.17830000       3.27020000
H        3.07310000      -0.79520000       2.24220000
H        2.74420000      -0.35300000       3.78050000
