15
Properties=species:S:1:pos:R:3 gdb_128277=T pbc="F F F"
C       -0.03150000       1.44770000      -0.04170000
N       -0.06830000       0.00410000       0.06410000
C       -1.22730000      -0.70750000       0.04100000
N       -1.10140000      -2.05790000      -0.02460000
C       -2.22670000      -2.73140000      -0.00610000
C       -3.45770000      -2.05420000       0.07780000
O       -4.61070000      -2.75560000       0.10510000
N       -3.51260000      -0.73920000       0.12060000
N       -2.38240000      -0.03250000       0.09640000
H        1.00370000       1.77730000       0.06750000
H       -0.42210000       1.80870000      -1.00210000
H       -0.63280000       1.90140000       0.75030000
H        0.75910000      -0.52830000      -0.14510000
H       -2.18770000      -3.81670000      -0.06080000
H       -5.32410000      -2.10310000       0.15620000
