20
Properties=species:S:1:pos:R:3 gdb_96413=T pbc="F F F"
O        0.06740000       1.42140000      -0.04700000
C        0.03350000       0.01150000       0.01980000
C        0.84290000      -0.55360000       1.19150000
C        0.81580000      -2.09000000       1.21590000
C       -0.62210000      -2.62750000       1.24210000
C       -1.44520000      -2.07640000       0.07070000
C       -1.42640000      -0.52970000       0.02840000
C       -2.15480000       0.05470000       1.15910000
N       -2.69350000       0.53870000       2.06120000
H       -0.28700000       1.77020000       0.78030000
H        0.48040000      -0.32850000      -0.92230000
H        1.86830000      -0.17830000       1.11880000
H        0.42510000      -0.16300000       2.13000000
H        1.33250000      -2.47630000       0.32650000
H        1.37460000      -2.45840000       2.08250000
H       -0.62080000      -3.72180000       1.20560000
H       -1.10260000      -2.34550000       2.18760000
H       -1.02480000      -2.43280000      -0.87790000
H       -2.47850000      -2.43340000       0.11430000
H       -1.91860000      -0.17500000      -0.88400000
