19
Properties=species:S:1:pos:R:3 gdb_104066=T pbc="F F F"
O       -0.10070000       1.38990000      -0.19110000
C       -0.02020000      -0.03460000      -0.17130000
C       -1.44990000      -0.52170000       0.02300000
O       -1.98740000       0.06940000       1.18790000
C       -2.38950000      -0.41390000      -1.23260000
C       -2.55240000      -1.94400000      -1.22080000
O       -1.52550000      -2.62900000      -1.98200000
C       -0.78170000      -2.94040000      -0.78150000
C       -1.69950000      -2.05840000       0.07450000
H        0.78930000       1.75130000      -0.16260000
H        0.39980000      -0.41830000      -1.11020000
H        0.60290000      -0.38390000       0.66580000
H       -1.72430000       0.99910000       1.15110000
H       -3.31000000       0.11580000      -0.97600000
H       -1.96170000       0.00030000      -2.14800000
H       -3.54180000      -2.38240000      -1.37280000
H       -0.85510000      -4.00800000      -0.53460000
H        0.27860000      -2.67300000      -0.86140000
H       -2.05410000      -2.42440000       1.03580000
