19
Properties=species:S:1:pos:R:3 gdb_75771=T pbc="F F F"
C       -0.67630000       1.20420000      -0.02800000
C        0.11390000      -0.09220000      -0.09670000
C        1.48510000      -0.11890000      -0.78260000
O        1.95040000       0.47340000      -1.71280000
C        2.06160000      -1.07940000       0.26580000
C        0.82650000      -0.72370000       1.17680000
C        1.19820000       0.31560000       2.24490000
C        0.13040000      -1.85700000       1.76070000
C       -0.45300000      -2.79350000       2.23980000
H       -0.09640000       2.01190000       0.42620000
H       -0.94940000       1.52290000      -1.03830000
H       -1.59800000       1.07570000       0.54790000
H       -0.49490000      -0.88020000      -0.55800000
H        2.04210000      -2.11580000      -0.08260000
H        3.05490000      -0.85000000       0.65850000
H        1.75070000       1.15030000       1.80090000
H        0.30640000       0.71490000       2.73520000
H        1.83130000      -0.14090000       3.01070000
H       -0.96430000      -3.62290000       2.66210000
