19
Properties=species:S:1:pos:R:3 gdb_58747=T pbc="F F F"
C        0.03570000       1.52990000      -0.07260000
C       -0.01240000       0.00510000       0.05610000
O        0.60260000      -0.44430000       1.26130000
C       -1.42590000      -0.52250000       0.00110000
C       -2.60650000      -0.23930000      -0.99770000
C       -3.25740000      -1.20400000       0.05500000
C       -1.91720000      -2.01600000      -0.02310000
C       -2.50240000      -0.35970000       1.08650000
O       -2.62970000       0.14060000       2.16500000
H        1.06640000       1.87720000       0.03450000
H       -0.34420000       1.85930000      -1.04520000
H       -0.57230000       2.00250000       0.70740000
H        0.58390000      -0.44470000      -0.74720000
H        0.09530000      -0.07470000       1.99480000
H       -2.99100000       0.78060000      -1.05630000
H       -2.47490000      -0.68330000      -1.98760000
H       -4.27330000      -1.59070000       0.06720000
H       -1.75740000      -2.52110000      -0.97900000
H       -1.64980000      -2.64720000       0.82510000
