10
Properties=species:S:1:pos:R:3 gdb_131034=T pbc="F F F"
O       -0.09230000      -0.02750000      -0.00190000
C       -0.04950000       1.15870000       0.00770000
N        1.18630000       1.89500000       0.00070000
N        2.41510000       1.34050000      -0.01750000
N        3.25090000       2.32310000      -0.01810000
C        2.49670000       3.47280000       0.00000000
N        1.19800000       3.22610000       0.01210000
C        3.05640000       4.77980000       0.00520000
N        3.52110000       5.83750000       0.00930000
H       -0.89410000       1.86270000       0.02320000
