14
Properties=species:S:1:pos:R:3 gdb_29103=T pbc="F F F"
N       -0.08590000       1.43080000       0.18160000
C       -0.10970000       0.03850000       0.05520000
C       -1.20560000      -0.65630000      -0.22350000
O       -1.21560000      -2.02270000      -0.34480000
C       -0.05710000      -2.73850000      -0.17700000
N       -0.04040000      -3.99460000      -0.28320000
C        1.19990000      -1.97280000       0.13940000
N        2.29700000      -2.57180000       0.30450000
O        1.10790000      -0.60550000       0.24110000
H        0.22540000       1.71520000       1.10640000
H        0.54370000       1.85510000      -0.49410000
H       -2.17220000      -0.20390000      -0.37620000
H       -0.97810000      -4.33920000      -0.49950000
H        3.03610000      -1.89650000       0.51030000
