20
Properties=species:S:1:pos:R:3 gdb_22219=T pbc="F F F"
C       -0.89990000       0.94650000       0.21530000
C        0.05880000      -0.22930000      -0.05620000
C        1.01340000       0.08050000      -1.23290000
C        0.30690000       0.27400000      -2.49340000
C       -0.28980000       0.42260000      -3.52690000
C        0.80100000      -0.61210000       1.20760000
C        0.02780000      -1.20100000       2.35890000
N        2.06140000      -0.40570000       1.23880000
O        2.62190000      -0.77690000       2.47220000
H       -0.33670000       1.83870000       0.50930000
H       -1.47110000       1.18150000      -0.68620000
H       -1.60660000       0.71370000       1.01690000
H       -0.55220000      -1.09650000      -0.34350000
H        1.60630000       0.97040000      -0.99330000
H        1.73620000      -0.73590000      -1.33480000
H       -0.80290000       0.55720000      -4.44650000
H        0.01040000      -0.50940000       3.20810000
H       -1.00050000      -1.43150000       2.07420000
H        0.51890000      -2.11270000       2.71130000
H        3.55650000      -0.59130000       2.33310000
