19
Properties=species:S:1:pos:R:3 gdb_99349=T pbc="F F F"
C        0.14910000       1.35170000       0.00660000
O       -0.01180000      -0.07230000       0.00020000
C       -1.28850000      -0.50850000       0.01200000
O       -2.24420000       0.22540000       0.02680000
C       -1.33570000      -2.02330000       0.00410000
C       -2.76200000      -2.57100000       0.01460000
C       -2.78450000      -4.11210000       0.00690000
C       -4.13570000      -4.65920000       0.01650000
C       -5.25870000      -5.08720000       0.02450000
H        1.22460000       1.52910000      -0.00340000
H       -0.32040000       1.79760000      -0.87390000
H       -0.30220000       1.78750000       0.90160000
H       -0.78010000      -2.37200000      -0.87550000
H       -0.76390000      -2.38140000       0.86950000
H       -3.29450000      -2.20060000       0.89520000
H       -3.31080000      -2.19160000      -0.85220000
H       -2.24750000      -4.48350000      -0.87650000
H       -2.23140000      -4.49250000       0.87630000
H       -6.24760000      -5.47320000       0.03160000
