15
Properties=species:S:1:pos:R:3 gdb_112406=T pbc="F F F"
O        0.06310000       1.41120000      -0.06340000
C        0.05640000       0.00680000       0.04500000
C       -1.36630000      -0.54850000       0.05030000
O       -2.01430000      -0.24040000      -1.20220000
C       -2.41850000      -1.38890000      -1.82200000
N       -3.01170000      -1.49840000      -2.92650000
N       -2.05800000      -2.45830000      -1.00980000
C       -1.41940000      -2.07210000       0.14550000
O       -0.98360000      -2.77210000       1.02330000
H       -0.35670000       1.63660000      -0.90110000
H        0.62780000      -0.47430000      -0.76400000
H        0.53190000      -0.25300000       0.99500000
H       -1.94160000      -0.08690000       0.85970000
H       -3.17530000      -0.58420000      -3.34270000
H       -2.25150000      -3.41310000      -1.26790000
