22
Properties=species:S:1:pos:R:3 gdb_93100=T pbc="F F F"
C       -0.04740000       1.57510000      -0.10770000
C        0.05670000       0.05010000      -0.00110000
C        0.70430000      -0.55560000      -1.25560000
N        0.96980000      -1.98440000      -1.16150000
C        0.98520000      -2.49870000      -0.00650000
O        0.82860000      -1.91650000       1.20390000
C        0.79600000      -0.45860000       1.25840000
C        2.24920000       0.02220000       1.36070000
C        0.03170000      -0.15140000       2.54510000
H        0.93830000       2.04400000      -0.19230000
H       -0.61590000       1.84860000      -1.00260000
H       -0.55920000       2.01610000       0.75230000
H       -0.96090000      -0.35790000       0.06810000
H        0.05050000      -0.38940000      -2.12020000
H        1.64330000      -0.03530000      -1.49330000
H        1.13340000      -3.57050000       0.11960000
H        2.82590000      -0.24430000       0.47130000
H        2.29630000       1.10680000       1.49010000
H        2.72870000      -0.44530000       2.22490000
H        0.49950000      -0.66930000       3.38710000
H        0.03540000       0.92050000       2.75840000
H       -1.00550000      -0.49020000       2.46970000
