16
Properties=species:S:1:pos:R:3 gdb_26829=T pbc="F F F"
C       -0.01510000       1.51110000       0.11610000
C        0.01720000       0.02720000      -0.01580000
C        0.05030000      -0.76330000      -1.16390000
O        0.05770000      -0.22280000      -2.41570000
C        0.07220000      -2.11440000      -0.77990000
C        0.05210000      -2.14170000       0.61240000
N        0.01910000      -0.83290000       1.04460000
C        0.06100000      -3.24910000       1.53760000
O        0.08950000      -4.42400000       1.22940000
H        0.85240000       1.89560000       0.66620000
H       -0.00660000       1.96030000      -0.87880000
H       -0.91650000       1.86000000       0.63480000
H        0.08240000      -0.93590000      -3.06010000
H        0.09940000      -2.98830000      -1.41270000
H       -0.00090000      -0.55300000       2.01130000
H        0.03870000      -2.93760000       2.61100000
