19
Properties=species:S:1:pos:R:3 gdb_84209=T pbc="F F F"
C       -0.16630000       1.57720000      -0.08100000
C       -0.04700000       0.05290000      -0.02290000
C        0.83360000      -0.47810000      -1.16900000
C        1.61330000      -1.44260000      -0.64560000
C        2.94390000      -1.21380000       0.03780000
C        2.33600000      -0.41020000       1.27800000
C        2.53710000      -1.91230000       1.29570000
C        1.08990000      -1.96850000       0.72130000
C        0.76820000      -0.53460000       1.19060000
H        0.82080000       2.04670000      -0.15620000
H       -0.75910000       1.89900000      -0.94320000
H       -0.65160000       1.96030000       0.82330000
H       -1.05980000      -0.37410000       0.03510000
H        1.16700000       0.20120000      -1.94940000
H        3.93080000      -0.95840000      -0.32900000
H        2.92710000       0.35160000       1.77240000
H        3.07930000      -2.55160000       1.97750000
H        0.39400000      -2.80250000       0.78380000
H        0.30260000      -0.40220000       2.17380000
