23
Properties=species:S:1:pos:R:3 gdb_115341=T pbc="F F F"
C       -0.23560000       1.73030000       0.26700000
C       -0.03210000       0.21490000       0.37480000
C       -1.20220000      -0.59250000      -0.19030000
C       -1.46280000      -0.42380000      -1.69690000
O       -2.16000000      -1.59360000      -2.12270000
C       -2.13840000      -2.58440000      -1.09190000
C       -1.91550000      -3.95220000      -1.71980000
C       -1.06670000      -2.11930000      -0.08650000
O        0.25460000      -2.46810000      -0.47610000
H        0.60560000       2.27160000       0.71080000
H       -0.32030000       2.05290000      -0.77610000
H       -1.14680000       2.04880000       0.78640000
H        0.88540000      -0.08030000      -0.14340000
H        0.11010000      -0.05880000       1.42770000
H       -2.11910000      -0.31910000       0.34950000
H       -2.07370000       0.45550000      -1.92840000
H       -0.51420000      -0.33780000      -2.24670000
H       -3.11090000      -2.58320000      -0.57000000
H       -0.95070000      -3.98540000      -2.23370000
H       -1.95250000      -4.74370000      -0.96230000
H       -2.69570000      -4.15580000      -2.45760000
H       -1.28360000      -2.48750000       0.92680000
H        0.32960000      -3.42690000      -0.46660000
