21
Properties=species:S:1:pos:R:3 gdb_100897=T pbc="F F F"
C       -0.23770000       1.40340000      -0.04040000
N        0.08660000      -0.01340000      -0.00120000
C        0.71130000      -0.49010000       1.22310000
C       -0.17170000      -0.46090000       2.48420000
C        1.22170000      -1.92260000       0.96800000
O        0.10600000      -2.72750000       0.65810000
C        0.38980000      -4.11160000       0.54700000
C        2.22790000      -1.94860000      -0.11890000
N        3.03980000      -2.01690000      -0.93800000
H        0.68130000       1.98980000       0.07240000
H       -0.66330000       1.64520000      -1.01860000
H       -0.94930000       1.74560000       0.73010000
H       -0.72450000      -0.58360000      -0.21120000
H        1.59920000       0.13160000       1.39780000
H        0.38920000      -0.77820000       3.37010000
H       -0.53890000       0.55120000       2.67230000
H       -1.03060000      -1.12700000       2.36600000
H        1.71980000      -2.29700000       1.87770000
H        0.80910000      -4.50830000       1.48330000
H       -0.55860000      -4.61070000       0.33960000
H        1.09290000      -4.31530000      -0.27080000
