19
Properties=species:S:1:pos:R:3 gdb_102395=T pbc="F F F"
N        0.04100000       1.37020000       0.46390000
C       -0.00200000      -0.02010000      -0.01480000
C       -1.45930000      -0.55590000      -0.03220000
C       -2.24260000      -0.12620000       1.25120000
O       -1.45160000      -0.11790000       2.40890000
C       -2.22970000      -0.04640000      -1.28340000
O       -1.64930000      -0.44730000      -2.50290000
C       -1.40080000      -2.01830000      -0.13550000
N       -1.37500000      -3.16560000      -0.28090000
H        1.00890000       1.65300000       0.58100000
H       -0.35140000       2.00120000      -0.22870000
H        0.42200000      -0.16500000      -1.01670000
H        0.57710000      -0.62340000       0.68760000
H       -2.67770000       0.86460000       1.05200000
H       -3.06980000      -0.82070000       1.42220000
H       -0.83100000       0.61510000       2.27320000
H       -3.28220000      -0.35690000      -1.20660000
H       -2.21330000       1.04870000      -1.28160000
H       -1.71760000      -1.40760000      -2.56620000
