19
Properties=species:S:1:pos:R:3 gdb_63540=T pbc="F F F"
C       -0.08980000       1.52850000      -0.00450000
C       -0.09610000       0.01910000       0.08640000
C       -1.21220000      -0.68190000      -0.65420000
O        1.21320000      -0.59710000      -0.06260000
C        0.58140000      -0.64620000       1.20280000
C        1.28090000      -0.11410000       2.48210000
C        0.93020000      -1.46060000       3.14030000
O       -0.49230000      -1.60590000       3.07330000
C        0.28170000      -1.96170000       1.91570000
H        0.76130000       1.95120000       0.53350000
H       -0.02650000       1.84760000      -1.05070000
H       -1.01160000       1.94310000       0.41750000
H       -1.18130000      -0.42900000      -1.71970000
H       -1.12880000      -1.76640000      -0.55810000
H       -2.18690000      -0.37200000      -0.26290000
H        2.35170000       0.01690000       2.30530000
H        0.86480000       0.77140000       2.96790000
H        1.45190000      -1.99480000       3.92500000
H        0.17620000      -2.96290000       1.51540000
