14
Properties=species:S:1:pos:R:3 gdb_27509=T pbc="F F F"
N        0.00700000       1.34240000      -0.02420000
C       -0.03660000      -0.01830000       0.05440000
N       -1.16850000      -0.62990000      -0.12230000
C       -1.20640000      -2.00210000       0.02220000
O       -2.19820000      -2.68050000      -0.10320000
N        0.02410000      -2.63900000       0.32860000
C        1.23820000      -2.02210000       0.52870000
N        2.37010000      -2.51870000       0.83450000
N        1.14340000      -0.64000000       0.35650000
H        0.87250000       1.79770000      -0.26470000
H       -0.83170000       1.75670000      -0.40060000
H       -0.03070000      -3.64130000       0.42760000
H        2.32330000      -3.52910000       0.94010000
H        1.98870000      -0.12940000       0.56070000
