21
Properties=species:S:1:pos:R:3 gdb_68109=T pbc="F F F"
C       -0.05090000       1.45630000      -0.07360000
C        0.00030000      -0.04530000       0.00890000
C        0.50620000      -1.03880000      -1.08240000
C        0.06030000      -1.93110000       0.11680000
C        0.78870000      -0.91060000       1.04300000
C       -1.19810000      -1.02270000       0.22680000
C        0.12010000      -3.41600000       0.19340000
C       -0.89240000      -4.21100000       0.90180000
O       -0.89110000      -4.13640000      -0.52380000
H        0.94810000       1.87660000      -0.23370000
H       -0.68870000       1.78340000      -0.90230000
H       -0.45250000       1.88900000       0.84940000
H       -0.09250000      -1.11740000      -1.99420000
H        1.57760000      -1.01710000      -1.30510000
H        1.88070000      -0.87860000       0.97700000
H        0.44950000      -0.86570000       2.08260000
H       -1.68890000      -0.97810000       1.20430000
H       -1.92570000      -1.09990000      -0.58530000
H        1.11920000      -3.84580000       0.09330000
H       -0.62100000      -5.17890000       1.32180000
H       -1.72190000      -3.70600000       1.39430000
