18
Properties=species:S:1:pos:R:3 gdb_65063=T pbc="F F F"
O        0.11730000       0.93860000      -1.13090000
C        0.03840000      -0.02620000      -0.10890000
C        1.29350000      -0.78370000       0.23050000
C        0.77830000       0.30210000       1.15560000
C       -1.32710000      -0.69370000      -0.03600000
C       -2.52530000       0.14670000      -0.34180000
N       -2.08790000      -0.88080000      -1.29630000
C       -1.45270000      -1.76570000       0.92090000
C       -1.54950000      -2.64130000       1.73950000
H        0.56350000       0.53960000      -1.88460000
H        1.20010000      -1.81490000       0.54920000
H        2.17650000      -0.55900000      -0.35910000
H        1.30720000       1.24770000       1.16500000
H        0.34000000      -0.00130000       2.09890000
H       -3.46110000      -0.06530000       0.16520000
H       -2.33900000       1.18800000      -0.58540000
H       -1.56810000      -0.41380000      -2.03730000
H       -1.64740000      -3.42190000       2.45280000
