23
Properties=species:S:1:pos:R:3 gdb_76408=T pbc="F F F"
C       -0.15020000       1.31420000      -0.27580000
C        0.16560000      -0.13420000       0.02900000
C        1.59600000      -0.63430000       0.08380000
O        2.65730000       0.27800000       0.00300000
C        0.77570000      -0.60130000       1.34890000
C        1.13590000       0.42080000       2.41460000
C        0.26100000      -1.88870000       1.94070000
C        0.28910000      -3.22120000       1.23690000
C        1.20360000      -2.97040000       2.41100000
H        0.67050000       1.97670000       0.00760000
H       -0.33110000       1.45220000      -1.34830000
H       -1.05040000       1.64850000       0.25130000
H       -0.53770000      -0.84210000      -0.40420000
H        1.81580000      -1.60060000      -0.36940000
H        2.73500000       0.55940000      -0.91470000
H        1.61640000       1.30430000       1.99500000
H        0.24210000       0.73720000       2.96500000
H        1.82950000      -0.02110000       3.13790000
H       -0.61090000      -1.73210000       2.57350000
H       -0.55990000      -3.88160000       1.37670000
H        0.73760000      -3.29340000       0.25210000
H        2.25820000      -2.83310000       2.19570000
H        1.00020000      -3.47540000       3.34890000
