21
Properties=species:S:1:pos:R:3 gdb_78639=T pbc="F F F"
C       -0.59420000       1.29840000       0.18960000
C        0.14810000      -0.03280000       0.15740000
C        1.00640000      -0.19240000      -1.16150000
C        2.24390000       0.34300000      -0.49350000
C        1.55050000      -0.13650000       0.79450000
C        1.94680000      -1.38380000       1.12260000
C        2.74720000      -1.98310000      -0.02340000
C        2.38610000      -0.98680000      -1.14710000
C        3.04360000      -1.15130000      -2.49890000
H        0.07340000       2.13110000      -0.05310000
H       -1.42190000       1.30400000      -0.52890000
H       -1.01430000       1.47820000       1.18440000
H       -0.52820000      -0.85430000       0.41820000
H        0.62610000       0.11230000      -2.13500000
H        2.79750000       1.25730000      -0.66520000
H        1.34410000      -2.02870000       1.75710000
H        3.84120000      -2.03750000       0.08640000
H        2.39900000      -3.00960000      -0.19870000
H        2.71100000      -2.07030000      -2.99510000
H        2.82200000      -0.31260000      -3.16580000
H        4.13330000      -1.21100000      -2.39130000
