20
Properties=species:S:1:pos:R:3 gdb_71753=T pbc="F F F"
C       -0.01530000       1.54820000      -0.01880000
C       -0.01620000       0.04170000      -0.05850000
C        0.46510000      -0.80300000      -1.25540000
C       -0.31970000      -1.95620000      -0.58460000
C        0.41080000      -2.25700000       0.73340000
C       -0.72770000      -2.48920000       1.74840000
N       -1.08880000      -1.04100000       1.57610000
C        0.37380000      -0.76080000       1.21710000
C       -1.27230000      -0.87500000       0.09030000
H        1.00880000       1.94070000      -0.00800000
H       -0.52220000       1.96940000      -0.89390000
H       -0.52500000       1.91820000       0.87670000
H        0.00070000      -0.47060000      -2.18940000
H        1.54180000      -0.93460000      -1.41050000
H       -0.70290000      -2.80110000      -1.15580000
H        1.31640000      -2.86430000       0.69180000
H       -1.51730000      -3.20770000       1.50170000
H       -0.37970000      -2.65810000       2.77170000
H        1.04170000      -0.39850000       1.99910000
H       -2.26870000      -0.67680000      -0.30230000
