23
Properties=species:S:1:pos:R:3 gdb_88859=T pbc="F F F"
C       -0.05710000       1.53430000      -0.19700000
C        0.02170000       0.03550000       0.00330000
C        1.32690000      -0.71660000      -0.13590000
C        0.65770000      -0.61020000       1.21280000
C        1.30090000       0.15140000       2.35830000
C        2.13360000      -0.74710000       3.29140000
C        3.20250000       0.21860000       3.81670000
C        3.45160000       1.09030000       2.58280000
O        2.20450000       1.16610000       1.89320000
H        0.82890000       2.03550000       0.19600000
H       -0.14810000       1.77610000      -1.26210000
H       -0.93430000       1.95330000       0.31030000
H       -0.85060000      -0.49800000      -0.36910000
H        1.33680000      -1.67270000      -0.64810000
H        2.21900000      -0.11550000      -0.27300000
H        0.15380000      -1.50580000       1.57110000
H        0.51250000       0.65220000       2.94360000
H        1.52790000      -1.20200000       4.07890000
H        2.59640000      -1.55280000       2.71020000
H        2.80390000       0.82430000       4.63770000
H        4.10720000      -0.28090000       4.17220000
H        3.77660000       2.10750000       2.82580000
H        4.21260000       0.63770000       1.92900000
