16
Properties=species:S:1:pos:R:3 gdb_10705=T pbc="F F F"
C       -0.72790000       1.19520000       0.25350000
C        0.32450000       0.13290000       0.02700000
O        1.18390000      -0.13160000       0.83520000
C        0.28630000      -0.61890000      -1.29180000
C        1.62900000      -0.97240000      -1.89680000
O        2.24250000       0.17750000      -2.44940000
C       -0.91720000      -1.41320000      -1.61030000
O       -0.68630000      -0.16370000      -2.25130000
H       -0.54750000       2.02840000      -0.43500000
H       -1.73360000       0.82750000       0.03130000
H       -0.66880000       1.54860000       1.28320000
H        2.29120000      -1.33770000      -1.10890000
H        1.49830000      -1.76430000      -2.64860000
H        1.64010000       0.51650000      -3.12160000
H       -0.81090000      -2.29590000      -2.23890000
H       -1.75390000      -1.43660000      -0.91380000
