16
Properties=species:S:1:pos:R:3 gdb_10644=T pbc="F F F"
C        0.07440000       1.24470000      -0.27290000
O       -0.07060000      -0.07000000       0.25390000
C       -1.34200000      -0.61180000       0.10160000
C       -1.71830000      -1.20110000      -1.25450000
C       -1.38260000      -2.11290000      -0.08920000
N       -0.14930000      -2.83360000       0.03930000
C       -2.37440000       0.02630000       0.89310000
N       -3.19370000       0.55490000       1.51550000
H        1.11410000       1.53080000      -0.10610000
H       -0.14620000       1.26940000      -1.34800000
H       -0.58450000       1.95310000       0.24390000
H       -2.74680000      -1.11790000      -1.58710000
H       -0.96290000      -1.07960000      -2.02390000
H       -2.23210000      -2.60730000       0.37460000
H       -0.05630000      -3.52190000      -0.70050000
H        0.63350000      -2.19160000      -0.02730000
