17
Properties=species:S:1:pos:R:3 gdb_49756=T pbc="F F F"
O       -0.06510000      -0.03650000       0.03760000
C       -0.01770000       1.17050000       0.03540000
N        1.14130000       1.91490000      -0.00850000
C        2.41160000       1.32530000      -0.05580000
N        3.48040000       2.01550000      -0.09640000
C        3.26680000       3.46920000      -0.08930000
C        2.23400000       3.84290000       1.01800000
C        1.16410000       3.37980000      -0.01030000
C        2.15390000       3.84150000      -1.11660000
H       -0.91560000       1.81790000       0.06840000
H        2.41070000       0.24040000      -0.05510000
H        4.22500000       3.98550000      -0.12560000
H        2.29580000       3.31220000       1.97000000
H        2.18100000       4.92090000       1.18030000
H        0.14410000       3.76490000       0.02770000
H        2.08880000       4.91930000      -1.27580000
H        2.14410000       3.30970000      -2.06980000
