17
Properties=species:S:1:pos:R:3 gdb_105931=T pbc="F F F"
O        0.02230000       1.34870000       0.16290000
C       -0.04370000      -0.04850000      -0.08410000
C       -1.45390000      -0.54530000      -0.07470000
C       -2.21860000      -0.93640000       1.20180000
C       -2.05070000      -1.92720000       0.07250000
C       -3.36970000      -1.35330000      -0.53430000
C       -3.63800000      -0.50140000       0.75030000
O       -3.50540000       0.74600000       0.03230000
C       -2.66840000      -0.00130000      -0.88140000
H       -0.59870000       1.54460000       0.87300000
H        0.41670000      -0.19620000      -1.06810000
H        0.55750000      -0.62290000       0.64080000
H       -1.76280000      -0.92680000       2.18330000
H       -1.59360000      -2.90570000       0.05020000
H       -4.12370000      -1.85420000      -1.13530000
H       -4.49460000      -0.54960000       1.42050000
H       -2.53770000       0.46090000      -1.85820000
