19
Properties=species:S:1:pos:R:3 gdb_28792=T pbc="F F F"
N        0.22190000       1.39530000       0.13670000
C        0.03910000      -0.00250000       0.04410000
C       -1.07210000      -0.81770000       0.16210000
C       -0.63540000      -2.17650000       0.07340000
C        0.72630000      -2.14570000      -0.10560000
C        1.92210000      -3.02300000      -0.32730000
C        3.09930000      -2.05400000      -0.01570000
C        2.54710000      -0.63500000      -0.30200000
N        1.12290000      -0.82780000      -0.10420000
H        0.34320000       1.83060000      -0.77410000
H       -0.58540000       1.82630000       0.57080000
H       -2.08570000      -0.47340000       0.30720000
H       -1.25730000      -3.05660000       0.13350000
H        1.94000000      -3.90720000       0.31610000
H        1.97700000      -3.38310000      -1.36420000
H        3.36140000      -2.12900000       1.04370000
H        3.99810000      -2.27060000      -0.59750000
H        2.93970000       0.12860000       0.37480000
H        2.76340000      -0.31600000      -1.33100000
