18
Properties=species:S:1:pos:R:3 gdb_91643=T pbc="F F F"
O       -0.01570000       1.43740000      -0.07530000
C        0.01290000       0.02360000       0.02170000
C        0.59740000      -0.54790000       1.36120000
C       -0.61830000      -1.34280000       1.89860000
O       -1.22500000      -1.80620000       0.68380000
C       -1.43480000      -0.53350000       0.07280000
C       -2.17900000       0.25770000       1.15360000
N       -3.01820000      -0.60580000       2.01210000
C       -1.62710000      -0.30730000       2.40730000
H        0.88830000       1.75280000      -0.16230000
H        0.53840000      -0.40960000      -0.83870000
H        1.44990000      -1.20730000       1.18300000
H        0.91020000       0.26370000       2.02500000
H       -0.40230000      -2.19340000       2.54480000
H       -1.93070000      -0.66010000      -0.88880000
H       -2.39790000       1.30830000       1.02280000
H       -3.63300000      -0.00030000       2.55240000
H       -1.40870000       0.29500000       3.28180000
