15
Properties=species:S:1:pos:R:3 gdb_33595=T pbc="F F F"
N        0.06090000      -1.04910000      -0.05080000
C        0.00600000       0.10750000      -0.03140000
C       -0.05770000       1.52390000       0.02750000
C        0.13110000       2.44740000      -1.19410000
C        1.07180000       2.54900000      -0.02580000
C        0.06930000       3.55970000       0.60860000
C       -0.76330000       3.62080000      -0.72540000
N       -1.97210000       2.98940000      -0.10790000
C       -0.99330000       2.43170000       0.87210000
H        0.29220000       2.04630000      -2.18470000
H        2.13730000       2.39210000       0.05250000
H        0.28150000       4.39590000       1.26970000
H       -0.89250000       4.48930000      -1.36870000
H       -2.50640000       3.72110000       0.36290000
H       -1.34750000       2.08030000       1.83900000
