17
Properties=species:S:1:pos:R:3 gdb_66021=T pbc="F F F"
C       -0.11070000       1.57950000      -0.05120000
C       -0.05830000       0.05020000      -0.00660000
C        1.11050000      -0.55780000      -0.84600000
N        1.93820000      -0.58390000       0.37800000
C        0.72970000      -0.53580000       1.23760000
C        0.82290000       0.25310000       2.45150000
C        0.88340000       0.90030000       3.46250000
C       -1.37020000      -0.53960000      -0.22870000
N       -2.40990000      -1.01350000      -0.40680000
H        0.89140000       1.98270000       0.10980000
H       -0.47940000       1.91660000      -1.02390000
H       -0.77150000       1.96930000       0.72650000
H        0.85220000      -1.54280000      -1.25480000
H        1.50270000       0.07660000      -1.64640000
H        2.51750000      -1.40630000       0.50470000
H        0.32580000      -1.52950000       1.47830000
H        0.94320000       1.47170000       4.35610000
