18
Properties=species:S:1:pos:R:3 gdb_11653=T pbc="F F F"
C       -0.14780000       1.57680000       0.02340000
C        0.02800000       0.06710000       0.02970000
C        1.18960000      -0.64310000      -0.74040000
C        2.17930000      -0.16560000       0.36480000
C        0.91530000      -0.65810000       1.11950000
C        0.90820000      -1.88750000       0.15040000
C        0.67190000      -0.67990000       2.58660000
O        1.43120000      -0.23750000       3.41370000
H        0.78290000       2.12430000       0.18760000
H       -0.55890000       1.90100000      -0.93920000
H       -0.85540000       1.88570000       0.80020000
H       -0.94240000      -0.42100000      -0.11830000
H        1.35670000      -0.63800000      -1.81840000
H        3.07860000      -0.77020000       0.50230000
H        2.41590000       0.89630000       0.41750000
H       -0.04870000      -2.39540000       0.00410000
H        1.73000000      -2.59590000       0.27930000
H       -0.29820000      -1.14270000       2.88660000
