20
Properties=species:S:1:pos:R:3 gdb_78520=T pbc="F F F"
C        0.03690000       1.49410000      -0.26020000
N        0.03180000       0.04700000      -0.04710000
C       -1.04690000      -0.49580000       0.83160000
C       -0.16240000      -1.72490000       1.22840000
C        0.00570000      -2.98190000       0.42670000
C       -0.42480000      -1.54710000       2.73960000
C       -0.35040000      -0.10350000       2.20350000
O       -0.40470000       1.07730000       2.92040000
C        0.75830000      -0.45630000       1.15610000
H        1.00720000       1.78820000      -0.67520000
H       -0.72820000       1.74530000      -1.00330000
H       -0.14790000       2.08510000       0.64810000
H       -2.10590000      -0.48920000       0.56300000
H        0.18900000      -2.72980000      -0.62210000
H        0.85010000      -3.57600000       0.79270000
H       -0.89090000      -3.60910000       0.48050000
H       -1.39810000      -1.89040000       3.10800000
H        0.37680000      -1.85970000       3.41640000
H       -1.21030000       1.07650000       3.44960000
H        1.84260000      -0.40640000       1.27460000
