21
Properties=species:S:1:pos:R:3 gdb_75328=T pbc="F F F"
C       -0.03500000       1.52960000       0.04840000
C       -0.02070000       0.03090000      -0.02830000
C       -0.03020000      -0.65310000      -1.17760000
C        0.00770000      -2.16430000      -1.25170000
C        0.09940000      -2.82340000       0.15110000
C       -0.81360000      -2.03470000       1.11490000
C        0.03900000      -0.75760000       1.28320000
C        1.43570000      -1.37260000       1.41030000
C        1.46340000      -2.54040000       0.76740000
H        0.84780000       1.90870000       0.58060000
H       -0.05260000       1.98650000      -0.94520000
H       -0.90920000       1.89110000       0.60610000
H       -0.05260000      -0.11790000      -2.12540000
H       -0.89240000      -2.52700000      -1.76890000
H        0.85430000      -2.48320000      -1.87730000
H       -0.14190000      -3.88810000       0.08460000
H       -1.80920000      -1.83230000       0.70950000
H       -0.91320000      -2.56300000       2.06790000
H       -0.25360000      -0.13460000       2.13280000
H        2.27580000      -0.86610000       1.87110000
H        2.33410000      -3.16610000       0.60740000
