16
Properties=species:S:1:pos:R:3 gdb_96932=T pbc="F F F"
C       -0.01480000       1.42760000       0.15910000
N        0.12940000      -0.01280000       0.00640000
C        0.55320000      -0.70010000       0.95350000
O        0.96800000      -0.31580000       2.25460000
C        1.45550000      -1.66080000       2.50950000
C        0.27470000      -2.56450000       2.54270000
O       -0.95940000      -2.18180000       3.03920000
C        0.87340000      -2.14450000       1.18140000
O        1.39020000      -3.02330000       0.26580000
H        0.51950000       1.92510000      -0.65680000
H       -1.07290000       1.69240000       0.05670000
H        0.35580000       1.81500000       1.11500000
H        2.42950000      -1.75840000       2.97050000
H        0.49690000      -3.60660000       2.75920000
H       -0.93490000      -1.22150000       3.14340000
H        0.65950000      -3.48320000      -0.16310000
