18
Properties=species:S:1:pos:R:3 gdb_19916=T pbc="F F F"
O       -0.16150000       1.38480000       0.72640000
C        0.09890000       0.20340000      -0.02650000
C       -1.23400000      -0.53250000      -0.13170000
C       -1.88970000      -1.23890000      -1.28950000
C       -1.01950000      -2.25070000      -2.08560000
C        0.40270000      -2.39180000      -1.61510000
C       -0.70690000      -3.00020000      -0.80130000
C       -1.57490000      -1.99360000       0.00370000
H        0.66390000       1.87180000       0.80920000
H        0.48500000       0.45950000      -1.02420000
H        0.85120000      -0.41860000       0.48050000
H       -1.98050000       0.06050000       0.39610000
H       -2.86040000      -0.92980000      -1.65780000
H       -1.34710000      -2.65710000      -3.03360000
H        0.97180000      -3.12490000      -2.18150000
H        1.00660000      -1.56090000      -1.27720000
H       -0.75970000      -4.06590000      -0.61980000
H       -2.27270000      -2.33900000       0.75690000
