19
Properties=species:S:1:pos:R:3 gdb_77280=T pbc="F F F"
C       -0.01310000       1.59510000       0.20900000
C        0.10510000       0.08830000       0.10140000
C        0.37780000      -0.63800000      -1.17900000
C        0.57210000       0.06420000      -2.51360000
C        1.44650000      -0.74460000      -3.45310000
O        2.39660000      -0.30660000      -4.04600000
C        1.44560000      -0.63600000      -0.07650000
C        2.72080000       0.10670000      -0.21110000
O        3.75810000      -0.26650000       0.28230000
H        0.63410000       2.13030000      -0.48870000
H       -1.04330000       1.90750000       0.00790000
H        0.24480000       1.92950000       1.21880000
H       -0.56060000      -0.43550000       0.78260000
H       -0.11920000      -1.60000000      -1.28050000
H       -0.41220000       0.17270000      -2.99320000
H        1.00440000       1.06190000      -2.42520000
H        1.14070000      -1.81130000      -3.56380000
H        1.57200000      -1.56120000       0.47600000
H        2.68370000       1.04890000      -0.79860000
