21
Properties=species:S:1:pos:R:3 gdb_89132=T pbc="F F F"
C       -0.35630000       1.51860000       0.02660000
C        0.01850000       0.04170000       0.01380000
C        1.16760000      -0.48920000      -0.91330000
C        1.77900000      -1.22540000       0.29270000
C        2.34590000      -2.61510000       0.25090000
C        2.20120000      -0.20920000       1.33790000
C        2.78920000       1.06670000       1.03740000
C        3.33960000       2.11040000       0.79740000
C        0.73290000      -0.59730000       1.21330000
H        0.50890000       2.15310000       0.22770000
H       -0.78130000       1.81640000      -0.93870000
H       -1.11100000       1.71960000       0.79560000
H       -0.88000000      -0.55100000      -0.19070000
H        0.80970000      -1.16240000      -1.69580000
H        1.81150000       0.27030000      -1.36650000
H        3.28610000      -2.64240000      -0.31300000
H        2.55250000      -2.99250000       1.25800000
H        1.65070000      -3.31160000      -0.23220000
H        2.65560000      -0.68820000       2.20390000
H        3.80900000       3.03920000       0.58720000
H        0.23590000      -1.03230000       2.07480000
