20
Properties=species:S:1:pos:R:3 gdb_88379=T pbc="F F F"
C       -1.57910000      -1.16140000       2.62250000
C       -0.68220000      -1.23070000       1.41380000
O       -0.58750000      -0.08010000       0.55290000
C        0.59450000      -0.52710000       1.20110000
C        1.34230000       0.42920000       2.13690000
C        2.19900000      -0.39830000       3.12220000
C        2.24500000       1.33990000       1.26630000
C        0.44150000       1.30810000       2.89730000
N       -0.20520000       2.03550000       3.52050000
H       -1.47910000      -0.22580000       3.17020000
H       -2.62300000      -1.26380000       2.30810000
H       -1.35520000      -1.99540000       3.29700000
H       -0.78430000      -2.16150000       0.85000000
H        1.30730000      -1.02000000       0.53280000
H        2.86250000      -1.06430000       2.56180000
H        2.81520000       0.25700000       3.74290000
H        1.57080000      -1.00660000       3.77720000
H        1.64490000       1.89960000       0.54510000
H        2.79430000       2.04980000       1.88960000
H        2.96730000       0.72570000       0.71990000
