18
Properties=species:S:1:pos:R:3 gdb_126752=T pbc="F F F"
C       -0.12150000       1.54180000       0.16800000
C        0.06620000       0.02930000       0.04650000
N        0.77210000      -0.54450000       1.18250000
C        2.07630000      -0.91880000       1.29090000
N        2.39940000      -1.38140000       2.45050000
O        1.18710000      -1.30470000       3.20480000
C        0.18700000      -0.78880000       2.42130000
N       -1.01840000      -0.57250000       2.72560000
C       -1.45150000      -0.91310000       4.07310000
H        0.84190000       2.05890000       0.21090000
H       -0.67670000       1.91880000      -0.69600000
H       -0.68780000       1.77340000       1.07270000
H       -0.90720000      -0.46690000      -0.00540000
H        0.62820000      -0.23090000      -0.85540000
H        2.78250000      -0.84390000       0.47690000
H       -0.94720000      -0.30300000       4.83510000
H       -2.52620000      -0.73360000       4.15500000
H       -1.26040000      -1.96590000       4.32180000
