17
Properties=species:S:1:pos:R:3 gdb_43359=T pbc="F F F"
O       -0.00670000      -0.03130000       0.00960000
C       -0.05830000       1.17600000      -0.00940000
C       -1.26900000       2.02720000      -0.05110000
C       -0.92540000       3.31900000      -0.01190000
C        0.56550000       3.54760000       0.06020000
C        1.04370000       4.10250000       1.42860000
O        1.29980000       2.96390000       2.23000000
C        1.92220000       2.01460000       1.37500000
C        1.16190000       2.11670000       0.03740000
H       -2.26930000       1.61540000      -0.08590000
H       -1.62290000       4.15090000      -0.01050000
H        0.90670000       4.18760000      -0.75940000
H        1.96040000       4.69860000       1.28950000
H        0.30130000       4.71990000       1.94140000
H        2.98680000       2.25990000       1.23330000
H        1.84370000       1.02760000       1.83610000
H        1.80920000       1.91050000      -0.81780000
