23
Properties=species:S:1:pos:R:3 gdb_99267=T pbc="F F F"
C       -0.48920000       1.34790000       0.68150000
C       -1.28770000       0.05400000       0.55590000
C       -1.12150000      -0.62230000      -0.78980000
O       -0.42980000      -0.17620000      -1.67620000
C       -1.86250000      -1.94230000      -1.01910000
O       -2.72170000      -2.23770000       0.05260000
C       -3.26950000      -3.55570000       0.05650000
C       -3.81750000      -3.78750000       1.45980000
C       -4.34370000      -3.73090000      -1.01990000
H       -0.64170000       1.80180000       1.66470000
H        0.58000000       1.16360000       0.54730000
H       -0.78980000       2.06910000      -0.08310000
H       -1.01520000      -0.67560000       1.32970000
H       -2.36230000       0.21490000       0.71160000
H       -2.39180000      -1.85700000      -1.97980000
H       -1.09770000      -2.72780000      -1.14760000
H       -2.45200000      -4.27190000      -0.13500000
H       -4.62210000      -3.07730000       1.67530000
H       -4.21730000      -4.80120000       1.55490000
H       -3.03040000      -3.65060000       2.20580000
H       -4.76280000      -4.74100000      -0.97640000
H       -5.15540000      -3.01280000      -0.86470000
H       -3.94160000      -3.58390000      -2.02630000
