16
Properties=species:S:1:pos:R:3 gdb_49805=T pbc="F F F"
O       -0.05190000      -0.05800000      -0.18040000
C       -0.03600000       1.14490000      -0.09830000
N        1.14350000       1.88970000       0.04200000
C        2.38280000       1.20750000       0.08480000
C        3.52280000       1.81480000       0.40260000
C        3.55640000       3.28210000       0.72810000
C        2.40770000       4.00820000       0.01310000
C        1.06860000       3.29990000       0.11250000
O        0.00960000       3.87620000       0.19120000
H       -0.92130000       1.79200000      -0.12810000
H        2.28480000       0.15280000      -0.13240000
H        4.43530000       1.23210000       0.44550000
H        3.48140000       3.42800000       1.81550000
H        4.51080000       3.72760000       0.43060000
H        2.26160000       5.02800000       0.37250000
H        2.63600000       4.06870000      -1.06020000
