23
Properties=species:S:1:pos:R:3 gdb_68445=T pbc="F F F"
C        0.04170000       1.59160000       0.17330000
C        0.03150000       0.08570000      -0.07110000
C        1.25780000      -0.49770000      -0.84000000
C        1.31190000      -1.66370000       0.18690000
C        0.42710000      -0.81350000       1.14150000
C        0.65640000      -2.95490000      -0.29380000
C       -0.73450000      -2.85480000      -0.86090000
C       -1.52460000      -1.79140000      -1.02260000
C       -1.30150000      -0.33800000      -0.69740000
H        0.98850000       1.91130000       0.62110000
H       -0.08930000       2.14800000      -0.76280000
H       -0.76620000       1.89060000       0.85210000
H        1.11020000      -0.76170000      -1.89140000
H        2.13060000       0.15750000      -0.76330000
H        2.30990000      -1.89930000       0.56780000
H        1.02510000      -0.26280000       1.87360000
H       -0.38190000      -1.32900000       1.66760000
H        1.30220000      -3.42180000      -1.05360000
H        0.63480000      -3.67550000       0.53850000
H       -1.13880000      -3.81400000      -1.18320000
H       -2.50380000      -1.97810000      -1.46290000
H       -2.11770000      -0.01350000      -0.03250000
H       -1.45070000       0.24000000      -1.62330000
