13
Properties=species:S:1:pos:R:3 gdb_125282=T pbc="F F F"
C        0.07280000       1.44880000       0.04680000
C       -0.07670000      -0.02690000       0.00570000
C       -1.16430000      -0.82950000      -0.24600000
C       -0.65840000      -2.15780000      -0.13610000
C        0.67030000      -2.03810000       0.16720000
O        1.06970000      -0.75120000       0.26360000
N        1.23030000      -3.25350000       0.28760000
N        0.36310000      -4.14060000       0.08570000
O       -0.96770000      -3.43360000      -0.21330000
H        0.80760000       1.79110000      -0.69000000
H       -0.88490000       1.92580000      -0.16930000
H        0.41490000       1.78300000       1.03230000
H       -2.16100000      -0.48830000      -0.47110000
