16
Properties=species:S:1:pos:R:3 gdb_14458=T pbc="F F F"
O        0.11320000       1.36210000       0.15270000
C        0.06430000      -0.01350000       0.06580000
C        0.69620000      -0.98530000       1.07030000
C        0.02560000      -1.89350000       0.00680000
C       -1.21240000      -0.94000000      -0.02810000
C       -1.68100000      -0.87880000      -1.47480000
O       -0.41800000      -0.85590000      -2.17070000
C        0.51790000      -0.92890000      -1.10820000
H       -0.09600000       1.72550000      -0.71550000
H        1.78870000      -1.00300000       1.11780000
H        0.25540000      -1.00670000       2.06930000
H        0.00590000      -2.97970000      -0.03020000
H       -1.94200000      -0.95240000       0.78120000
H       -2.26480000      -1.75250000      -1.78930000
H       -2.25640000       0.02680000      -1.70830000
H        1.54060000      -0.93950000      -1.48320000
