18
Properties=species:S:1:pos:R:3 gdb_120812=T pbc="F F F"
O        0.01750000       1.36180000       0.32130000
C       -0.08090000      -0.04910000       0.41220000
C       -1.29230000      -0.47390000      -0.41520000
C       -1.45930000      -1.97260000      -0.42870000
O       -1.94490000      -2.60130000       0.76980000
C       -2.74330000      -2.69110000      -0.40460000
C       -4.09480000      -1.99300000      -0.38110000
C       -5.12950000      -2.82550000       0.23340000
N       -5.94340000      -3.49350000       0.70840000
H        0.73900000       1.65170000       0.88690000
H        0.82560000      -0.54200000       0.02380000
H       -0.21800000      -0.38270000       1.45140000
H       -2.17700000       0.02400000      -0.00970000
H       -1.15850000      -0.11660000      -1.44370000
H       -0.62440000      -2.51150000      -0.88320000
H       -2.77450000      -3.68610000      -0.85060000
H       -4.02860000      -1.05130000       0.16920000
H       -4.40440000      -1.75620000      -1.40630000
