20
Properties=species:S:1:pos:R:3 gdb_87222=T pbc="F F F"
O        0.19140000       1.21490000       0.47720000
C        0.07280000      -0.11520000       0.08470000
C       -0.49380000      -1.15800000       1.03460000
C       -1.29520000      -0.66860000      -0.16320000
O       -2.30320000       0.27200000       0.09540000
C       -1.62870000      -1.57110000      -1.32640000
N       -2.92260000      -2.20440000      -1.06350000
C       -3.30010000      -3.32300000      -1.91850000
C       -2.90290000      -3.55280000      -0.50200000
H       -0.70570000       1.57290000       0.50820000
H        0.88450000      -0.41900000      -0.57190000
H       -0.07110000      -2.15770000       1.02240000
H       -0.81880000      -0.79750000       2.00420000
H       -3.13640000      -0.21690000       0.05220000
H       -1.73530000      -0.96770000      -2.23610000
H       -0.82140000      -2.30310000      -1.49620000
H       -4.34450000      -3.36250000      -2.21410000
H       -2.59570000      -3.63030000      -2.68950000
H       -1.93330000      -4.01320000      -0.32320000
H       -3.65330000      -3.76410000       0.25390000
