18
Properties=species:S:1:pos:R:3 gdb_52983=T pbc="F F F"
C        0.02240000       1.46160000       0.05950000
C       -0.00720000       0.00760000       0.00620000
C       -0.03990000      -1.19630000      -0.02290000
C       -0.04940000      -2.62940000      -0.09720000
C        0.95530000      -3.32820000      -1.02970000
C        0.23730000      -4.58680000      -1.46350000
C       -1.01230000      -4.63630000      -0.99330000
C       -1.30200000      -3.47620000      -0.10150000
N       -0.47490000      -3.36020000       1.11570000
H        0.94220000       1.85730000      -0.38560000
H       -0.82290000       1.90060000      -0.48250000
H       -0.02480000       1.82000000       1.09380000
H        1.19120000      -2.68360000      -1.88490000
H        1.90770000      -3.53220000      -0.52360000
H        0.71370000      -5.34830000      -2.07040000
H       -1.73340000      -5.42180000      -1.18610000
H       -2.29770000      -3.05350000      -0.02210000
H        0.08460000      -4.20560000       1.22350000
