16
Properties=species:S:1:pos:R:3 gdb_66519=T pbc="F F F"
O        0.23690000       1.38170000      -0.38640000
C       -0.16680000       0.07250000      -0.15170000
C       -1.52520000      -0.09340000       0.53050000
C        0.25420000      -1.07070000      -1.06980000
C        0.59050000      -1.90440000      -0.05970000
C        0.99180000      -3.28830000       0.01690000
C        1.17080000      -3.94760000       1.16640000
N       -1.20800000      -0.90340000       1.47350000
C        0.24730000      -0.88560000       1.02520000
H        1.12120000       1.35790000      -0.76810000
H       -2.51850000       0.30100000       0.31780000
H        0.19150000      -1.19490000      -2.14620000
H        1.14360000      -3.80110000      -0.93100000
H        1.45900000      -4.99240000       1.18500000
H        1.02280000      -3.46240000       2.12590000
H        0.95970000      -0.61830000       1.80420000
