13
Properties=species:S:1:pos:R:3 gdb_81729=T pbc="F F F"
O       -0.12890000       1.48920000       0.16880000
C       -0.01250000       0.10880000       0.00730000
C       -1.32600000      -0.67210000      -0.00360000
O       -2.02580000      -0.31060000      -1.18040000
C       -1.01470000      -1.35360000      -1.30140000
C       -1.35100000      -2.62960000      -1.81550000
C       -1.56980000      -3.71760000      -2.27760000
C        0.27430000      -0.51890000      -1.40280000
O        1.17130000      -0.43130000      -2.18080000
H        0.68090000       1.89850000      -0.15600000
H        0.70450000      -0.34700000       0.71350000
H       -1.89110000      -1.07370000       0.82840000
H       -1.77450000      -4.67790000      -2.68330000
