16
Properties=species:S:1:pos:R:3 gdb_123367=T pbc="F F F"
C       -0.92380000       0.34500000       0.87190000
C       -0.27440000       0.73750000      -0.06040000
C        0.56610000       1.20550000      -1.16420000
N        1.84800000       1.81340000      -0.74860000
C        1.76870000       3.06460000      -0.11550000
C        1.86770000       3.47510000       1.20120000
C        1.74110000       4.87980000       1.14380000
N        1.56780000       5.32000000      -0.09840000
N        1.59600000       4.19730000      -0.84800000
H       -1.51070000       0.00720000       1.69010000
H        0.79610000       0.36970000      -1.83450000
H        0.02110000       1.94290000      -1.76230000
H        2.35660000       1.16290000      -0.16210000
H        1.98910000       2.84490000       2.06690000
H        1.75990000       5.58660000       1.96080000
H        1.55340000       4.26580000      -1.85090000
