18
Properties=species:S:1:pos:R:3 gdb_12023=T pbc="F F F"
C        0.34950000       1.46520000      -0.06680000
C        0.03150000       0.00100000       0.13820000
C       -1.15870000      -0.51680000      -0.64250000
O        1.16710000      -0.89290000       0.13110000
C        0.44830000      -0.73750000       1.35010000
C        1.18420000      -0.19170000       2.53730000
C        2.62590000      -0.43050000       2.70730000
O        2.12440000       0.86270000       2.36230000
H        1.26420000       1.74290000       0.45330000
H        0.46850000       1.67060000      -1.13670000
H       -0.47350000       2.08900000       0.29930000
H       -1.00190000      -0.36500000      -1.71600000
H       -1.31110000      -1.58460000      -0.46690000
H       -2.07130000       0.01900000      -0.35970000
H       -0.16010000      -1.60420000       1.62800000
H        0.56740000      -0.09990000       3.43320000
H        3.04850000      -0.51600000       3.70670000
H        3.16310000      -0.93960000       1.91050000
