14
Properties=species:S:1:pos:R:3 gdb_21552=T pbc="F F F"
N        0.09820000       1.37780000       0.14890000
C       -0.03600000      -0.00530000       0.04600000
C       -1.20750000      -0.69120000       0.02340000
C       -1.20460000      -2.13750000      -0.00170000
N       -2.29440000      -2.82940000      -0.02400000
C        0.15470000      -2.70370000      -0.01370000
N        1.25920000      -2.03600000       0.00390000
N        1.15740000      -0.68770000       0.01190000
H        0.77280000       1.77610000      -0.49350000
H       -0.78690000       1.85950000       0.07060000
H       -2.15480000      -0.16660000       0.00940000
H       -2.07470000      -3.82750000      -0.05270000
H        0.26860000      -3.78540000      -0.03060000
H        2.02290000      -0.20830000       0.19790000
