12
Properties=species:S:1:pos:R:3 gdb_25115=T pbc="F F F"
N       -0.28470000       1.30580000      -0.01680000
C       -0.07540000       0.07450000      -0.17890000
O        1.15840000      -0.38050000      -0.63860000
C        1.49370000      -1.68640000      -0.86250000
N        0.76380000      -2.65980000      -1.18570000
C       -0.61960000      -2.47630000      -1.40390000
O       -1.15070000      -2.74480000      -2.44310000
N       -1.36180000      -2.04790000      -0.27570000
C       -1.12340000      -0.90730000       0.22710000
H        0.51020000       1.86950000      -0.32390000
H        2.57080000      -1.79640000      -0.76360000
H       -1.75250000      -0.54340000       1.03910000
