17
Properties=species:S:1:pos:R:3 gdb_66962=T pbc="F F F"
C        0.02890000       1.49560000       0.10710000
C       -0.01550000       0.00370000      -0.02060000
C       -1.01060000      -0.89330000       0.74980000
C       -1.06190000      -2.21420000       0.00600000
N        0.42800000      -2.07880000      -0.27110000
C        0.47200000      -1.07300000       0.90670000
C        0.47220000      -0.85840000      -1.18300000
C       -0.28610000      -0.91980000      -2.43150000
N       -0.89460000      -0.94460000      -3.41420000
H        1.02020000       1.88680000      -0.14660000
H       -0.70170000       1.96990000      -0.55700000
H       -0.20010000       1.80810000       1.13090000
H       -1.71310000      -0.45730000       1.44910000
H       -1.20990000      -3.06750000       0.67160000
H       -1.68800000      -2.32280000      -0.88460000
H        1.16480000      -1.10800000       1.73490000
H        1.52100000      -0.65130000      -1.41640000
