15
Properties=species:S:1:pos:R:3 gdb_1803=T pbc="F F F"
C       -0.19360000       1.50300000      -0.54280000
C       -0.05230000       0.09880000      -0.00200000
C        0.88310000      -0.85580000      -0.66860000
N        1.19720000      -0.32310000       0.66490000
C       -1.32390000      -0.46500000       0.60950000
N       -1.11330000      -1.40940000       1.56480000
O       -2.42440000      -0.10670000       0.23090000
H        0.70640000       1.80480000      -1.08790000
H       -1.05250000       1.55630000      -1.21470000
H       -0.36510000       2.21930000       0.26780000
H        0.64990000      -1.91600000      -0.69310000
H        1.44400000      -0.48900000      -1.52420000
H        1.89210000       0.41630000       0.60010000
H       -0.18610000      -1.50680000       1.94880000
H       -1.91190000      -1.76970000       2.05940000
