23
Properties=species:S:1:pos:R:3 gdb_101257=T pbc="F F F"
C       -0.16220000       1.50720000       0.21170000
O        0.16330000       0.15310000      -0.00150000
C        0.67430000      -0.52640000       1.14170000
C       -0.44520000      -0.86880000       2.13300000
C        1.38460000      -1.79080000       0.68680000
C        1.07750000      -2.46450000      -0.63970000
C        2.44320000      -1.87010000      -0.37510000
C        2.93980000      -0.67180000      -1.15020000
O        3.46510000      -2.77990000      -0.02930000
H        0.69460000       2.07380000       0.60830000
H       -0.44250000       1.92600000      -0.75820000
H       -1.00850000       1.63580000       0.90130000
H        1.40370000       0.13290000       1.64410000
H       -0.97020000       0.02740000       2.47520000
H       -1.17050000      -1.53940000       1.66270000
H       -0.03240000      -1.36740000       3.01550000
H        1.57660000      -2.47540000       1.50770000
H        0.99300000      -3.54560000      -0.64900000
H        0.41930000      -1.93310000      -1.31710000
H        2.12670000       0.02150000      -1.36610000
H        3.71620000      -0.14560000      -0.58430000
H        3.38260000      -0.99270000      -2.10200000
H        3.80590000      -3.15650000      -0.84870000
