18
Properties=species:S:1:pos:R:3 gdb_16502=T pbc="F F F"
C       -0.05220000       1.47740000       0.03840000
C        0.07360000      -0.01440000      -0.03300000
O       -0.55860000      -0.78160000       1.01330000
C        0.86380000      -0.89850000       0.82600000
C        1.31880000      -1.98380000      -0.17530000
C        0.02080000      -2.24830000      -0.98840000
C        0.19980000      -0.75930000      -1.38990000
C        1.74150000      -1.05850000      -1.37140000
H        0.69550000       1.96050000      -0.60010000
H       -1.04110000       1.80140000      -0.30540000
H        0.08260000       1.82930000       1.06440000
H        1.48450000      -0.57610000       1.65610000
H        1.95190000      -2.79010000       0.19390000
H        0.20370000      -2.91880000      -1.82990000
H       -0.87870000      -2.53010000      -0.44510000
H       -0.29910000      -0.32160000      -2.25490000
H        2.42070000      -0.22710000      -1.15670000
H        2.08740000      -1.61230000      -2.24810000
