19
Properties=species:S:1:pos:R:3 gdb_99718=T pbc="F F F"
C       -1.47940000      -2.21000000       0.75500000
C       -0.66450000      -1.10540000       0.07670000
C        0.41190000      -0.42370000       0.97440000
C       -0.28670000       0.35320000       2.11000000
N       -0.32610000      -0.25320000       3.31750000
O       -0.79770000       1.43170000       1.86570000
C        1.47350000      -1.43660000       1.39480000
N        2.55600000      -1.49590000       0.57560000
O        1.36940000      -2.18100000       2.36280000
H       -2.04460000      -1.82090000       1.60650000
H       -2.19420000      -2.63710000       0.04520000
H       -0.84010000      -3.01710000       1.12290000
H       -0.16170000      -1.50720000      -0.81100000
H       -1.32810000      -0.30560000      -0.26640000
H        0.88080000       0.35660000       0.36730000
H        0.14990000      -1.13750000       3.44690000
H       -0.77890000       0.22740000       4.07720000
H        2.67050000      -0.88640000      -0.21440000
H        3.27220000      -2.17490000       0.77690000
