18
Properties=species:S:1:pos:R:3 gdb_30060=T pbc="F F F"
C        0.15220000       1.47850000      -0.04660000
N        0.03880000       0.03210000      -0.01090000
C        0.03060000      -0.80760000      -1.10910000
C       -0.12300000      -2.07170000      -0.61030000
N       -0.20990000      -2.03700000       0.75940000
C       -0.11550000      -0.76350000       1.09090000
C       -0.16830000      -0.26590000       2.47970000
C       -1.22710000      -0.79690000       3.39130000
N        0.16800000      -1.21180000       3.55550000
H        0.95000000       1.82290000       0.61720000
H        0.39630000       1.78780000      -1.06380000
H       -0.78490000       1.96080000       0.24920000
H        0.13780000      -0.42290000      -2.10990000
H       -0.16770000      -3.00180000      -1.15610000
H        0.19660000       0.74520000       2.63940000
H       -1.62010000      -0.16670000       4.18490000
H       -1.92930000      -1.50200000       2.95630000
H        0.29100000      -2.12460000       3.11680000
