15
Properties=species:S:1:pos:R:3 gdb_74971=T pbc="F F F"
N        0.00710000       1.32520000       0.16060000
C        0.01740000      -0.03020000       0.02960000
N       -1.04520000      -0.77740000       0.02400000
C       -0.55630000      -2.16370000      -0.06650000
C        0.12900000      -2.34230000      -1.43180000
O        1.30760000      -1.50110000      -1.33430000
C        1.26850000      -0.86760000      -0.03830000
C        0.71110000      -2.04190000       0.81680000
O        1.10070000      -2.59940000       1.79400000
H        0.78400000       1.84000000      -0.22050000
H       -0.89550000       1.76850000       0.06310000
H       -1.29880000      -2.90920000       0.20690000
H        0.43970000      -3.37710000      -1.61790000
H       -0.50410000      -1.99070000      -2.25340000
H        2.23960000      -0.44080000       0.19760000
