24
Properties=species:S:1:pos:R:3 gdb_113707=T pbc="F F F"
C       -0.46760000       0.10120000      -3.24420000
C       -0.06840000      -0.81050000      -2.08510000
N       -1.24800000      -1.12250000      -1.27930000
C       -1.90300000      -2.41170000      -1.42970000
C       -1.22480000      -2.04780000      -0.14880000
C        0.00870000      -2.75040000       0.43960000
C       -0.43630000      -3.49140000       1.71320000
C        0.73460000      -3.73090000      -0.48430000
O        0.99630000      -1.76410000       0.78630000
H        0.40790000       0.36580000      -3.84600000
H       -1.19200000      -0.39390000      -3.89960000
H       -0.92710000       1.02040000      -2.87040000
H        0.42480000      -1.70790000      -2.48820000
H        0.66030000      -0.31490000      -1.43730000
H       -2.98850000      -2.40660000      -1.50440000
H       -1.41380000      -3.15530000      -2.05800000
H       -1.87790000      -1.69220000       0.65150000
H       -1.18280000      -4.25980000       1.48630000
H        0.42510000      -3.96760000       2.18900000
H       -0.88220000      -2.79540000       2.43280000
H        1.11330000      -3.24260000      -1.38240000
H        1.59150000      -4.15020000       0.05090000
H        0.07680000      -4.55220000      -0.77910000
H        0.56760000      -1.10290000       1.34100000
