16
Properties=species:S:1:pos:R:3 gdb_123621=T pbc="F F F"
C        0.09000000       1.48470000      -0.04230000
C        1.34490000       0.67780000      -0.02700000
N       -0.00040000       0.02410000      -0.00540000
C       -0.24790000      -0.61820000      -1.33510000
C        0.97820000      -0.31320000      -2.14880000
C        1.60850000      -0.48680000      -3.35750000
N        2.83290000       0.10330000      -3.21760000
N        3.04240000       0.65540000      -1.99680000
C        1.90810000       0.39820000      -1.36560000
H       -0.24890000       1.98270000       0.86260000
H       -0.15220000       2.00190000      -0.96900000
H        1.95120000       0.59820000       0.86910000
H       -0.38790000      -1.69300000      -1.17160000
H       -1.18060000      -0.22950000      -1.75910000
H        1.32550000      -0.97100000      -4.27880000
H        3.57020000       0.14730000      -3.90040000
