23
Properties=species:S:1:pos:R:3 gdb_109391=T pbc="F F F"
C       -0.03700000       1.59970000       0.24250000
C       -0.01390000       0.11970000      -0.17930000
C       -1.36490000      -0.55200000      -0.07970000
C       -2.01720000      -0.94420000      -1.17800000
C       -3.37730000      -1.60500000      -1.22270000
O       -3.50480000      -2.79620000      -0.46210000
C       -3.67170000      -2.59740000       0.92590000
C       -2.40540000      -2.15360000       1.66180000
C       -1.92530000      -0.73220000       1.32110000
H        0.96260000       2.03970000       0.17010000
H       -0.70990000       2.17490000      -0.40130000
H       -0.37830000       1.72200000       1.27550000
H        0.35710000       0.04360000      -1.20690000
H        0.70620000      -0.41680000       0.45490000
H       -1.54900000      -0.77150000      -2.14520000
H       -4.15930000      -0.88800000      -0.91190000
H       -3.60270000      -1.89510000      -2.25320000
H       -4.47980000      -1.86610000       1.10840000
H       -4.00680000      -3.56170000       1.32300000
H       -2.61510000      -2.20520000       2.73830000
H       -1.60620000      -2.87420000       1.45410000
H       -1.16180000      -0.44050000       2.05030000
H       -2.76160000      -0.03320000       1.47400000
