25
Properties=species:S:1:pos:R:3 gdb_89378=T pbc="F F F"
C        0.72970000       1.47230000       0.04540000
C       -0.05390000       0.15350000      -0.00460000
C        0.29600000      -0.74220000      -1.22900000
C        1.10610000      -1.92960000      -0.71680000
C        1.10630000      -3.17630000      -1.57110000
C        2.32650000      -1.59100000       0.11300000
C        1.02430000      -1.93870000       0.80300000
C        0.93380000      -3.19540000       1.63750000
C        0.16330000      -0.75690000       1.23950000
H        1.81150000       1.31650000       0.10270000
H        0.53250000       2.07580000      -0.84740000
H        0.43750000       2.06520000       0.91900000
H       -1.11320000       0.42520000      -0.05990000
H       -0.62170000      -1.12030000      -1.69660000
H        0.82940000      -0.17840000      -2.00480000
H        1.56470000      -2.98060000      -2.54820000
H        1.66960000      -3.99110000      -1.10690000
H        0.08620000      -3.53560000      -1.75420000
H        3.11070000      -2.34200000       0.15070000
H        2.69970000      -0.57330000       0.13910000
H        1.54410000      -4.00500000       1.22680000
H        1.28460000      -3.01170000       2.66040000
H       -0.09980000      -3.55620000       1.70590000
H        0.61000000      -0.20280000       2.07470000
H       -0.79900000      -1.14000000       1.60140000
