18
Properties=species:S:1:pos:R:3 gdb_118387=T pbc="F F F"
O       -0.12440000       1.47960000       0.09810000
C        0.02730000       0.07510000      -0.02940000
C       -1.36960000      -0.53200000       0.01770000
C       -1.37050000      -2.07380000      -0.04200000
C       -2.82280000      -2.60320000       0.12510000
C       -2.89730000      -4.05790000       0.23290000
N       -2.95180000      -5.20730000       0.33500000
C       -0.77530000      -2.57880000      -1.27740000
C       -0.30950000      -2.98700000      -2.30730000
H        0.74160000       1.88600000       0.00200000
H        0.51810000      -0.19610000      -0.97480000
H        0.63890000      -0.33800000       0.79020000
H       -1.85490000      -0.21190000       0.94690000
H       -1.95980000      -0.12860000      -0.81250000
H       -0.78440000      -2.45350000       0.80560000
H       -3.26350000      -2.16460000       1.02690000
H       -3.43100000      -2.27820000      -0.72550000
H        0.10950000      -3.36200000      -3.20840000
