21
Properties=species:S:1:pos:R:3 gdb_108989=T pbc="F F F"
C       -0.17000000       1.49610000       0.01060000
C        0.08380000      -0.02380000      -0.00480000
C        0.79110000      -0.49920000      -1.22920000
C        2.03770000      -0.92990000      -1.44730000
C        2.04440000      -1.27740000      -2.94310000
C        0.67330000      -2.02940000      -3.06600000
C        0.14900000      -0.62620000      -2.63870000
O       -1.20420000      -0.33650000      -2.80540000
C        1.29460000      -0.03570000      -3.53590000
H        0.77150000       2.05000000      -0.05090000
H       -0.79520000       1.80940000      -0.83250000
H       -0.68650000       1.79550000       0.92790000
H        0.66840000      -0.29850000       0.88050000
H       -0.88110000      -0.54130000       0.07720000
H        2.86180000      -1.04140000      -0.75540000
H        2.95660000      -1.66530000      -3.39080000
H        0.40220000      -2.28720000      -4.09460000
H        0.49170000      -2.86370000      -2.38540000
H       -1.33030000       0.61210000      -2.69950000
H        1.68280000       0.95410000      -3.28230000
H        1.08170000      -0.12050000      -4.60630000
