16
Properties=species:S:1:pos:R:3 gdb_48873=T pbc="F F F"
O       -0.13540000       0.01210000       0.28940000
C        0.02490000       1.11190000      -0.17650000
C        1.32830000       1.85440000      -0.14090000
C        1.40840000       3.04240000       0.89860000
C        2.01960000       3.84670000      -0.23150000
C        2.98690000       3.07070000      -1.08990000
C        3.58310000       1.81050000      -0.56560000
C        2.60630000       1.06250000      -0.05330000
N        1.52940000       2.87610000      -1.27530000
H       -0.80730000       1.67880000      -0.64920000
H        0.41180000       3.42550000       1.13300000
H        1.96700000       2.86540000       1.82100000
H        1.90970000       4.92000000      -0.35510000
H        3.47570000       3.62720000      -1.88370000
H        4.64100000       1.58620000      -0.59370000
H        2.67360000       0.11180000       0.45650000
