15
Properties=species:S:1:pos:R:3 gdb_5791=T pbc="F F F"
C        0.10720000       1.53930000       0.01800000
O        1.19970000       0.62620000      -0.07790000
C       -0.12090000       0.08080000       0.02750000
C       -0.43280000      -0.66990000       1.26090000
C        0.36370000      -0.74320000       2.38360000
N       -0.28270000      -1.52610000       3.30420000
C       -1.47790000      -1.96180000       2.79160000
C       -1.59930000      -1.44870000       1.52220000
H        0.03480000       2.08430000       0.95780000
H       -0.09790000       2.11900000      -0.88190000
H       -0.49170000      -0.36270000      -0.89810000
H        1.33550000      -0.32030000       2.57540000
H        0.08040000      -1.76840000       4.20900000
H       -2.13360000      -2.59540000       3.36680000
H       -2.43130000      -1.60520000       0.85230000
