16
Properties=species:S:1:pos:R:3 gdb_16688=T pbc="F F F"
O       -0.02980000       1.40010000       0.08390000
C        0.03290000      -0.00240000       0.01510000
C       -1.37590000      -0.61910000      -0.18070000
C       -1.22890000      -0.25140000      -1.68750000
C        0.27980000      -0.59460000      -1.43060000
C        0.17860000      -2.07600000      -1.11660000
O        0.88100000      -2.98330000      -1.47360000
C       -1.05670000      -2.12480000      -0.18580000
H        0.86540000       1.74610000       0.01090000
H        0.65160000      -0.41290000       0.82550000
H       -2.21650000      -0.27270000       0.41890000
H       -1.77070000      -0.85320000      -2.42160000
H       -1.36970000       0.81150000      -1.87290000
H        1.09610000      -0.27190000      -2.07450000
H       -0.79070000      -2.53760000       0.79280000
H       -1.85570000      -2.73960000      -0.61090000
