18
Properties=species:S:1:pos:R:3 gdb_18484=T pbc="F F F"
C       -0.00250000      -1.17990000      -0.19080000
C       -0.03340000       0.00630000       0.00310000
C       -0.02750000       1.44720000       0.22810000
C        1.36570000       2.06890000       0.04060000
C        2.00900000       2.09490000      -1.38850000
C        2.18050000       3.61430000      -1.26130000
C        0.84180000       4.26490000      -1.07170000
C        1.49570000       3.59730000       0.10900000
H        0.00990000      -2.22800000      -0.35910000
H       -0.74350000       1.92460000      -0.45230000
H       -0.38360000       1.66320000       1.24430000
H        2.05570000       1.59490000       0.74370000
H        2.94900000       1.54200000      -1.43150000
H        1.37120000       1.75840000      -2.21290000
H        3.05190000       4.17640000      -1.57360000
H        0.84760000       5.34980000      -1.03870000
H       -0.04490000       3.84530000      -1.54190000
H        1.74470000       4.15730000       1.00290000
