21
Properties=species:S:1:pos:R:3 gdb_108788=T pbc="F F F"
C        0.09720000       1.46920000      -0.11150000
C       -0.09710000      -0.04600000       0.04610000
C       -1.58910000      -0.40950000       0.03370000
O        0.54240000      -0.70640000      -1.07010000
C        1.56140000      -1.58560000      -0.62040000
C        1.55980000      -1.46810000       0.88260000
C        2.49850000      -2.24400000       1.74400000
O        2.26490000      -1.92950000       3.10430000
C        0.62450000      -0.60040000       1.25030000
H        1.16160000       1.71810000      -0.12360000
H       -0.35040000       1.80980000      -1.05020000
H       -0.37680000       2.01210000       0.71300000
H       -2.04760000      -0.08220000      -0.90440000
H       -1.71900000      -1.49100000       0.12520000
H       -2.11650000       0.07480000       0.86220000
H        1.35210000      -2.61440000      -0.95880000
H        2.53160000      -1.29940000      -1.06030000
H        2.36070000      -3.32310000       1.55030000
H        3.53770000      -2.01170000       1.44910000
H        2.88180000      -2.43750000       3.63860000
H        0.39120000      -0.31260000       2.26630000
