17
Properties=species:S:1:pos:R:3 gdb_109029=T pbc="F F F"
C       -0.05230000       1.42260000      -0.01620000
N       -0.00740000      -0.01680000       0.12470000
C        0.67710000      -0.63420000       1.10660000
N        1.27470000      -0.08430000       2.10820000
C        1.80090000      -1.14940000       2.94560000
C        0.77950000      -1.97480000       3.65550000
C        1.43480000      -2.49970000       2.36250000
C        0.73300000      -2.15560000       1.09660000
O        0.31740000      -2.85840000       0.20570000
H        0.89950000       1.83630000      -0.37550000
H       -0.84320000       1.69340000      -0.71890000
H       -0.26640000       1.87510000       0.95560000
H       -0.28800000      -0.61260000      -0.63910000
H        2.76850000      -0.96550000       3.39740000
H        1.05800000      -2.51020000       4.55760000
H       -0.25260000      -1.64150000       3.61710000
H        2.04380000      -3.39180000       2.41400000
