21
Properties=species:S:1:pos:R:3 gdb_80417=T pbc="F F F"
C       -0.08260000       1.49030000       0.07090000
C       -0.01210000      -0.01930000       0.05460000
C        0.95830000      -0.81290000      -0.87650000
C        0.70030000      -1.96380000       0.13530000
C        0.61380000      -0.86070000       1.22070000
C       -0.78000000      -2.27110000      -0.13810000
O       -1.38390000      -3.00640000       0.90030000
C       -1.32180000      -0.78690000      -0.20780000
O       -2.36760000      -0.54590000       0.72550000
H        0.88910000       1.93330000       0.31150000
H       -0.39640000       1.87770000      -0.90530000
H       -0.80860000       1.84540000       0.81060000
H        0.66240000      -0.96080000      -1.92100000
H        1.97990000      -0.42860000      -0.82940000
H        1.37090000      -2.81700000       0.23070000
H        1.59200000      -0.47460000       1.51600000
H        0.01940000      -1.07920000       2.11350000
H       -0.90890000      -2.79210000      -1.09780000
H       -2.23000000      -2.56890000       1.07150000
H       -1.74860000      -0.54580000      -1.18550000
H       -1.96790000      -0.40790000       1.59200000
