24
Properties=species:S:1:pos:R:3 gdb_5814=T pbc="F F F"
C       -0.49840000       1.50430000      -0.41870000
C        0.00370000       0.07120000      -0.24360000
C       -1.14430000      -0.92390000      -0.41160000
C        1.26750000      -0.26740000      -1.10020000
C        2.11500000      -0.48880000       0.19530000
C        2.61750000      -1.92170000       0.37040000
C        3.26270000       0.50670000       0.36320000
C        0.85110000      -0.15040000       1.05190000
H        0.31270000       2.23090000      -0.30130000
H       -0.93410000       1.65080000      -1.41440000
H       -1.27010000       1.74520000       0.32230000
H       -1.59670000      -0.84000000      -1.40710000
H       -0.80130000      -1.95680000      -0.28910000
H       -1.93260000      -0.74560000       0.32960000
H        1.16190000      -1.15750000      -1.72810000
H        1.61700000       0.55380000      -1.73350000
H        3.38930000      -2.16240000      -0.37050000
H        3.05310000      -2.06800000       1.36610000
H        1.80670000      -2.64860000       0.25300000
H        2.91940000       1.53950000       0.24060000
H        3.71500000       0.42300000       1.35870000
H        4.05110000       0.32840000      -0.37790000
H        0.95650000       0.73940000       1.68010000
H        0.50160000      -0.97190000       1.68480000
