17
Properties=species:S:1:pos:R:3 gdb_55659=T pbc="F F F"
C        0.24750000       1.57280000      -0.05520000
C       -0.06000000       0.09370000       0.04740000
O       -0.37280000      -0.43290000       1.09160000
C        0.02400000      -0.71390000      -1.24070000
C        0.07900000      -2.23250000      -0.98920000
C       -1.14230000      -2.73670000      -0.18960000
O       -1.10040000      -3.65360000       0.57920000
C        0.11180000      -2.95920000      -2.25470000
C        0.09230000      -3.54450000      -3.30460000
H        1.31200000       1.71180000      -0.27820000
H       -0.31080000       2.03080000      -0.87870000
H        0.00710000       2.07030000       0.88480000
H       -0.86040000      -0.46740000      -1.84550000
H        0.88250000      -0.39360000      -1.83990000
H        0.96000000      -2.48510000      -0.38940000
H       -2.09150000      -2.21260000      -0.43960000
H        0.09440000      -4.07740000      -4.22320000
