16
Properties=species:S:1:pos:R:3 gdb_46117=T pbc="F F F"
O        0.11450000       0.12030000      -0.32330000
C        0.01280000       1.29610000      -0.14940000
C       -1.12890000       2.07030000       0.50190000
C       -0.85590000       3.52710000       0.11880000
C        0.65940000       3.52710000      -0.18640000
C        1.51310000       3.97590000       1.01520000
C        2.94770000       3.93510000       0.74240000
N        4.08150000       3.92370000       0.52320000
O        0.98780000       2.17680000      -0.53390000
H       -2.08720000       1.68080000       0.15680000
H       -1.08040000       1.89810000       1.58250000
H       -1.41000000       3.79810000      -0.78320000
H       -1.11910000       4.24520000       0.89810000
H        0.90830000       4.14670000      -1.05110000
H        1.23770000       5.00250000       1.28270000
H        1.29610000       3.34450000       1.88450000
