20
Properties=species:S:1:pos:R:3 gdb_116625=T pbc="F F F"
C       -0.46060000       1.42980000      -0.13010000
C        0.55700000       0.32570000       0.14140000
N        1.14260000      -0.14890000      -1.10760000
C        2.00830000      -1.06780000      -1.05720000
O        2.45240000      -1.66870000       0.09890000
C        3.42850000      -2.66040000      -0.23280000
C        3.53910000      -2.60590000      -1.72760000
C        2.70820000      -1.67470000      -2.20450000
C        2.44420000      -1.23580000      -3.60500000
H        0.01420000       2.27540000      -0.63700000
H       -1.26430000       1.06290000      -0.77580000
H       -0.90410000       1.79060000       0.80360000
H        1.34500000       0.69540000       0.81420000
H        0.07720000      -0.50700000       0.67660000
H        4.37070000      -2.42020000       0.27880000
H        3.08780000      -3.63630000       0.13950000
H        4.20480000      -3.24320000      -2.29490000
H        3.05060000      -1.79330000      -4.32270000
H        1.38610000      -1.36790000      -3.85320000
H        2.65310000      -0.16680000      -3.71560000
