16
Properties=species:S:1:pos:R:3 gdb_28780=T pbc="F F F"
N        0.17130000       1.44100000       0.07580000
C        0.03600000       0.04290000      -0.01370000
C       -1.03330000      -0.82680000      -0.05530000
N       -0.61960000      -2.15040000      -0.06110000
C        0.68570000      -2.08070000      -0.03670000
C        1.87780000      -2.99680000      -0.03030000
C        3.02280000      -1.99650000       0.03600000
C        2.54320000      -0.74540000       0.05690000
N        1.13980000      -0.78410000       0.00650000
H        0.35800000       1.87180000      -0.82560000
H       -0.67370000       1.85860000       0.44610000
H       -2.08170000      -0.56750000      -0.07450000
H        1.87590000      -3.67620000       0.83080000
H        1.92990000      -3.62850000      -0.92570000
H        4.06700000      -2.26850000       0.06800000
H        3.05820000       0.20170000       0.11170000
