25
Properties=species:S:1:pos:R:3 gdb_86543=T pbc="F F F"
C       -0.75190000       1.04040000      -0.22590000
C        0.26360000      -0.07500000      -0.02800000
C        1.63240000       0.03200000      -0.76100000
C        2.36320000      -0.39640000       0.55130000
C        1.02930000      -0.14710000       1.32510000
C        2.91940000      -1.81000000       0.59080000
C        1.97890000      -2.94370000       0.22140000
C        4.37290000      -1.97480000       0.20760000
C        3.95440000      -2.09910000       1.65470000
H       -0.30610000       2.01930000      -0.01300000
H       -1.12550000       1.06270000      -1.25610000
H       -1.61530000       0.91740000       0.43800000
H       -0.20770000      -1.03900000      -0.24700000
H        1.78130000      -0.59780000      -1.64240000
H        1.86670000       1.06460000      -1.03900000
H        3.16810000       0.28530000       0.84260000
H        1.03340000       0.81700000       1.84360000
H        0.71690000      -0.91410000       2.03910000
H        1.60380000      -2.84270000      -0.80300000
H        2.49190000      -3.90810000       0.28690000
H        1.11370000      -2.98830000       0.89200000
H        4.66590000      -2.87740000      -0.31860000
H        4.93050000      -1.09190000      -0.08750000
H        4.22990000      -1.29990000       2.33510000
H        3.96450000      -3.08560000       2.10640000
