18
Properties=species:S:1:pos:R:3 gdb_98773=T pbc="F F F"
C       -0.36360000       1.38000000       0.75010000
O       -0.42410000      -0.04700000       0.63450000
C       -0.80460000      -0.51340000      -0.57150000
O       -1.03810000       0.18890000      -1.52140000
C       -0.90050000      -2.03020000      -0.53090000
N       -2.12550000      -2.52910000       0.20120000
C       -2.43020000      -3.39690000      -0.96540000
C       -2.75890000      -2.51960000      -2.12720000
C       -1.30900000      -2.78590000      -1.79320000
H       -0.04740000       1.58330000       1.77330000
H        0.35390000       1.79480000       0.03760000
H       -1.34420000       1.82280000       0.55790000
H        0.02040000      -2.42790000      -0.09310000
H       -1.83850000      -3.07900000       1.00420000
H       -2.76240000      -4.42090000      -0.84670000
H       -3.10430000      -3.03280000      -3.01900000
H       -3.19240000      -1.53970000      -1.95780000
H       -0.61830000      -3.22350000      -2.50140000
