19
Properties=species:S:1:pos:R:3 gdb_108770=T pbc="F F F"
C       -0.18100000       1.55600000      -0.00400000
C        0.05320000       0.03250000       0.00320000
C        0.78940000      -0.45280000      -1.21700000
C        2.09750000      -0.75770000      -1.21850000
C        2.75240000      -1.32140000      -2.40710000
O        3.91230000      -1.68230000      -2.42520000
C        1.84470000      -1.50650000      -3.62320000
O        0.77260000      -0.58450000      -3.65840000
C       -0.01110000      -0.60180000      -2.48870000
H        0.77110000       2.09380000      -0.02120000
H       -0.76150000       1.87410000      -0.87520000
H       -0.73040000       1.85990000       0.89160000
H        0.61600000      -0.24480000       0.90000000
H       -0.91720000      -0.47840000       0.06630000
H        2.71250000      -0.65890000      -0.32800000
H        2.42960000      -1.36220000      -4.53360000
H        1.47570000      -2.54880000      -3.61790000
H       -0.60730000      -1.53360000      -2.42220000
H       -0.72700000       0.22070000      -2.58900000
