15
Properties=species:S:1:pos:R:3 gdb_79114=T pbc="F F F"
O        0.02760000       1.45370000       0.00840000
C       -0.01880000       0.05730000      -0.06600000
C       -1.40610000      -0.54630000      -0.01730000
C       -2.04160000      -0.53410000      -1.39250000
O       -1.62300000       0.40290000      -2.36900000
C       -0.26610000       0.28750000      -2.52310000
O        0.35630000       0.91970000      -3.32310000
C        0.22350000      -0.67510000      -1.45430000
C       -0.99940000      -1.55430000      -1.11270000
H        0.94460000       1.74330000      -0.04840000
H        0.62470000      -0.41910000       0.68450000
H       -2.00140000      -0.69770000       0.87480000
H       -3.08950000      -0.78400000      -1.48330000
H        1.20510000      -1.09730000      -1.64620000
H       -1.09020000      -2.62980000      -1.16620000
