23
Properties=species:S:1:pos:R:3 gdb_96148=T pbc="F F F"
C        0.00770000       1.55360000       0.08970000
C       -0.00600000       0.03130000      -0.01160000
C        0.54510000      -0.46430000      -1.36440000
C        0.14680000      -1.89210000      -1.69510000
C        1.15030000      -2.91410000      -2.17340000
C        0.55400000      -3.03250000      -0.79140000
C        1.36270000      -2.76090000       0.46530000
C        0.65820000      -1.80340000       1.43850000
O        0.77290000      -0.43720000       1.08580000
H        1.02460000       1.93570000      -0.04740000
H       -0.63510000       1.99920000      -0.67530000
H       -0.34510000       1.87120000       1.07410000
H       -1.04270000      -0.33060000       0.10430000
H        0.19290000       0.20010000      -2.16310000
H        1.63530000      -0.35610000      -1.33110000
H       -0.84970000      -1.97830000      -2.12170000
H        0.85130000      -3.62530000      -2.93600000
H        2.18730000      -2.59910000      -2.24350000
H       -0.19600000      -3.81000000      -0.66810000
H        1.56400000      -3.70820000       0.98170000
H        2.33990000      -2.32850000       0.22230000
H       -0.40290000      -2.08670000       1.54370000
H        1.12000000      -1.87790000       2.42930000
