14
Properties=species:S:1:pos:R:3 gdb_21099=T pbc="F F F"
C       -0.18430000       1.41370000      -0.10400000
N       -0.00610000      -0.01730000       0.04490000
N        0.29420000      -0.81040000      -0.97290000
N        0.38700000      -2.01750000      -0.47330000
C        0.14020000      -1.90410000       0.85350000
C        0.14120000      -3.09690000       1.76210000
O        1.10610000      -4.04910000       1.37170000
N       -0.10980000      -0.64960000       1.21010000
H        0.55060000       1.94240000       0.50640000
H       -0.04080000       1.65030000      -1.15730000
H       -1.19030000       1.69480000       0.21400000
H        0.37510000      -2.77910000       2.78190000
H       -0.87210000      -3.53190000       1.78120000
H        1.07030000      -4.11210000       0.40960000
