17
Properties=species:S:1:pos:R:3 gdb_97090=T pbc="F F F"
C        0.12190000       1.33240000      -0.13920000
N        0.33700000      -0.10650000      -0.11590000
C        0.59780000      -0.65570000       0.98350000
N        0.71370000      -0.26810000       2.31960000
C        1.10560000      -1.60000000       2.80210000
C        0.84130000      -2.14640000       1.35060000
N       -0.25870000      -3.09140000       1.24740000
C        2.03480000      -2.69650000       0.70900000
N        2.98760000      -3.11390000       0.20630000
H        1.05770000       1.85430000      -0.37770000
H       -0.59280000       1.57690000      -0.93020000
H       -0.26380000       1.73840000       0.80830000
H        1.07010000       0.61060000       2.66230000
H        2.14400000      -1.69030000       3.13230000
H        0.43510000      -2.02300000       3.55550000
H       -1.10610000      -2.64780000       1.59280000
H       -0.42650000      -3.30560000       0.26780000
