15
Properties=species:S:1:pos:R:3 gdb_54822=T pbc="F F F"
O       -0.31790000       0.22750000      -0.77210000
C       -0.04110000       1.33090000      -0.02670000
O        0.99490000       1.50670000       0.54400000
C       -1.26820000       2.19500000      -0.03190000
C       -1.81470000       2.66120000      -1.34560000
C       -1.14800000       2.27080000      -2.66030000
N       -1.50760000       0.84150000      -2.75700000
H       -0.85810000       0.28820000      -3.30410000
C       -1.62440000       0.37500000      -1.41390000
N       -2.35410000       1.44940000      -0.69350000
H       -1.49570000       2.73390000       0.88070000
H       -2.46690000       3.52800000      -1.33460000
H       -1.57340000       2.83040000      -3.49780000
H       -0.06460000       2.45080000      -2.64690000
H       -2.11570000      -0.59350000      -1.33490000
