21
Properties=species:S:1:pos:R:3 gdb_66312=T pbc="F F F"
C        0.04910000       1.57330000       0.17400000
C       -0.04110000       0.06950000      -0.01840000
C       -1.30860000      -0.43580000      -0.69130000
C       -1.44930000       0.02360000      -2.14160000
O       -2.57390000      -0.61910000      -2.75960000
C       -3.67660000       0.11440000      -2.98960000
O       -4.67300000      -0.34160000      -3.46420000
C        1.24060000      -0.68740000      -0.29070000
C        0.56310000      -0.80520000       1.05400000
H        0.96360000       1.84490000       0.70980000
H        0.06120000       2.11180000      -0.78050000
H       -0.80090000       1.94810000       0.75680000
H       -1.32180000      -1.53110000      -0.68480000
H       -2.19160000      -0.10810000      -0.12630000
H       -1.56290000       1.11250000      -2.21220000
H       -0.57030000      -0.26210000      -2.72660000
H       -3.55230000       1.17720000      -2.69920000
H        1.20130000      -1.54460000      -0.95510000
H        2.16570000      -0.12410000      -0.35060000
H        1.02820000      -0.31760000       1.90430000
H        0.06760000      -1.73930000       1.29630000
