25
Properties=species:S:1:pos:R:3 gdb_122199=T pbc="F F F"
C       -0.00520000       1.49640000      -0.02560000
O        0.12860000       0.09890000      -0.09250000
C        0.69130000      -0.45630000       1.07860000
C        0.81040000      -1.96400000       0.88170000
C        1.24680000      -2.74270000       2.12580000
C        2.64370000      -2.33710000       2.60780000
C        0.21620000      -2.80200000       3.30410000
C        0.44010000      -4.33430000       3.40240000
C        1.11620000      -4.29700000       2.00600000
H        0.96780000       1.99670000       0.10780000
H       -0.44590000       1.83060000      -0.96830000
H       -0.66270000       1.80740000       0.80280000
H        1.67570000      -0.00040000       1.27530000
H        0.05330000      -0.23080000       1.95180000
H       -0.16930000      -2.33040000       0.55220000
H        1.50900000      -2.15790000       0.05720000
H        2.67420000      -1.29300000       2.93690000
H        2.96370000      -2.95420000       3.45410000
H        3.38450000      -2.46040000       1.80910000
H        0.44270000      -2.20300000       4.19090000
H       -0.79660000      -2.55500000       2.97130000
H        1.13770000      -4.60520000       4.19930000
H       -0.44960000      -4.95950000       3.50540000
H        0.42750000      -4.58560000       1.20630000
H        2.04570000      -4.85980000       1.87980000
