21
Properties=species:S:1:pos:R:3 gdb_110472=T pbc="F F F"
C        0.05630000       1.54360000       0.14360000
C       -0.12900000       0.03130000      -0.02730000
C        0.63690000      -0.53600000      -1.21380000
C        2.19030000      -0.61280000      -1.20250000
C        2.59840000      -1.60540000      -0.08640000
C        1.51780000      -2.67740000      -0.26730000
C        2.81770000      -2.76290000      -1.03450000
C        2.13230000      -1.88730000      -2.12710000
C        0.72180000      -2.06820000      -1.44810000
H        1.11120000       1.79940000       0.29190000
H       -0.29280000       2.08900000      -0.74050000
H       -0.50070000       1.92010000       1.00740000
H        0.19290000      -0.48400000       0.88640000
H       -1.19720000      -0.19560000      -0.14580000
H        0.31580000      -0.05170000      -2.14690000
H        2.82900000       0.24780000      -1.39820000
H        3.07090000      -1.40900000       0.86680000
H        1.16750000      -3.29560000       0.54840000
H        3.58130000      -3.52860000      -1.06130000
H        2.30780000      -1.88320000      -3.19960000
H       -0.09470000      -2.64390000      -1.88350000
