20
Properties=species:S:1:pos:R:3 gdb_12774=T pbc="F F F"
C       -0.07790000       1.51670000       0.00810000
C        0.02410000       0.01720000       0.01560000
C       -0.81820000      -0.85180000       0.91550000
C        0.67860000      -0.92750000       1.03320000
C        1.24170000      -1.79940000      -0.09540000
C        0.61800000      -0.81390000      -1.13820000
C       -0.31070000      -1.35750000      -2.20820000
O        0.47480000      -2.13600000      -3.10300000
H        0.86050000       1.97840000      -0.32090000
H       -0.87040000       1.86390000      -0.66680000
H       -0.30780000       1.90260000       1.00690000
H       -1.32210000      -0.31510000       1.71400000
H       -1.38330000      -1.70040000       0.53620000
H        1.19120000      -0.67680000       1.95490000
H        2.33190000      -1.82200000      -0.14100000
H        0.87270000      -2.83040000      -0.12780000
H        1.41380000      -0.25070000      -1.63710000
H       -1.10620000      -1.96640000      -1.75140000
H       -0.80120000      -0.52050000      -2.73310000
H       -0.11300000      -2.53150000      -3.75310000
