18
Properties=species:S:1:pos:R:3 gdb_65988=T pbc="F F F"
C        0.06230000       1.54900000       0.13870000
C       -0.01730000       0.02550000       0.04350000
C        0.86970000      -0.62420000      -1.05190000
O        1.72270000      -1.22790000      -0.02680000
C        0.98290000      -0.67820000       0.98740000
O        1.15910000      -0.77680000       2.15810000
C       -1.40810000      -0.57740000       0.13560000
C       -2.52440000       0.05970000       0.87380000
N       -2.55940000      -0.02660000      -0.59830000
H        1.09010000       1.88930000      -0.01510000
H       -0.56080000       2.03870000      -0.61710000
H       -0.25390000       1.89250000       1.12660000
H        0.39380000      -1.39450000      -1.66200000
H        1.44510000       0.06310000      -1.67560000
H       -1.39130000      -1.66630000       0.11370000
H       -3.25020000      -0.56340000       1.38750000
H       -2.35880000       1.02880000       1.33380000
H       -2.32770000       0.87950000      -0.99830000
