17
Properties=species:S:1:pos:R:3 gdb_46127=T pbc="F F F"
O        0.24440000       0.03950000       0.12300000
C        0.11840000       1.23990000       0.05520000
N       -1.00980000       1.98040000       0.39980000
C       -0.88350000       3.35680000      -0.05090000
C        0.65480000       3.52390000      -0.09830000
C        1.22650000       4.06930000       1.23580000
C        2.68270000       4.04440000       1.25610000
C        3.88370000       3.99580000       1.22750000
N        1.06780000       2.15940000      -0.38020000
H       -1.89490000       1.50050000       0.36320000
H       -1.31580000       3.51580000      -1.04860000
H       -1.35160000       4.06100000       0.64390000
H        0.95430000       4.19640000      -0.90730000
H        0.86740000       5.09590000       1.38280000
H        0.82840000       3.46870000       2.06300000
H        4.94530000       3.96590000       1.22640000
H        2.03920000       1.90150000      -0.29040000
