18
Properties=species:S:1:pos:R:3 gdb_124742=T pbc="F F F"
C        0.21670000       1.22050000       0.62160000
C       -0.21350000      -0.10280000      -0.00850000
O       -1.57660000      -0.06330000      -0.43920000
C        0.66970000      -0.54140000      -1.14950000
C        2.02140000      -0.50210000      -1.44280000
C        3.18440000       0.05820000      -0.68680000
N        2.21000000      -1.12290000      -2.64690000
N        1.06690000      -1.54070000      -3.11270000
N        0.13780000      -1.19690000      -2.21040000
H        1.21980000       1.14940000       1.04930000
H        0.22750000       2.02140000      -0.12660000
H       -0.48280000       1.48960000       1.41720000
H       -0.20500000      -0.88080000       0.76600000
H       -1.69180000       0.73800000      -0.96380000
H        3.23640000      -0.32770000       0.33700000
H        4.10460000      -0.22400000      -1.20270000
H        3.15450000       1.15150000      -0.62660000
H       -0.83630000      -1.41650000      -2.35040000
