17
Properties=species:S:1:pos:R:3 gdb_92420=T pbc="F F F"
C       -0.43210000       1.53820000       0.22620000
C        0.03110000       0.10510000       0.12970000
O        1.04810000      -0.11440000      -0.89900000
C        1.93130000      -0.74220000       0.02760000
C        2.88010000       0.23440000       0.73980000
O        1.89530000       0.49620000       1.77760000
C        0.97520000      -0.45480000       1.22360000
C        0.45650000      -1.44890000       2.21660000
O       -0.44820000      -2.21110000       1.98220000
H       -0.81030000       1.87020000      -0.74520000
H       -1.24270000       1.62500000       0.95720000
H        0.38770000       2.19170000       0.53270000
H       -0.80150000      -0.59020000      -0.02930000
H        2.29480000      -1.71760000      -0.29970000
H        3.78430000      -0.21850000       1.16410000
H        3.13510000       1.12850000       0.16320000
H        0.98850000      -1.43300000       3.19240000
