23
Properties=species:S:1:pos:R:3 gdb_104458=T pbc="F F F"
C        0.08130000       1.33940000      -0.19090000
O       -0.09460000      -0.02740000       0.10990000
C        0.64280000      -0.57610000       1.20870000
C       -0.02020000      -0.19370000       2.53660000
C        0.59510000      -2.09530000       0.96840000
C        1.39300000      -2.46830000      -0.28810000
C        2.80500000      -1.88700000      -0.21300000
O        2.78660000      -0.48300000       0.00530000
C        2.12130000      -0.14010000       1.20260000
H        1.07290000       1.54440000      -0.61480000
H       -0.67450000       1.58840000      -0.94080000
H       -0.07610000       1.99450000       0.67870000
H       -1.06070000      -0.53060000       2.54200000
H        0.49640000      -0.65400000       3.38480000
H       -0.01290000       0.88980000       2.69270000
H        1.01110000      -2.60560000       1.84650000
H       -0.45020000      -2.40650000       0.87370000
H        1.44800000      -3.55660000      -0.40470000
H        0.88640000      -2.06140000      -1.16800000
H        3.37400000      -2.37930000       0.59640000
H        3.35170000      -2.04050000      -1.14780000
H        2.21810000       0.94380000       1.31200000
H        2.61930000      -0.60420000       2.07180000
