17
Properties=species:S:1:pos:R:3 gdb_45313=T pbc="F F F"
O        0.02740000      -0.10670000      -0.06360000
C        0.00320000       1.10290000      -0.01860000
N       -1.12210000       1.90760000       0.05080000
C       -0.82970000       3.32710000      -0.03860000
C       -1.46790000       4.15360000       1.10580000
C       -0.37100000       4.22720000       2.14010000
C        0.79900000       3.79280000       1.67850000
C        0.71290000       3.33670000       0.23660000
N        1.09810000       1.95860000      -0.03720000
H       -1.99720000       1.52100000      -0.26150000
H       -1.07920000       3.73240000      -1.02610000
H       -1.75670000       5.15540000       0.76060000
H       -2.37830000       3.67490000       1.48290000
H       -0.54120000       4.61600000       3.13820000
H        1.73100000       3.77490000       2.23260000
H        1.25360000       4.01860000      -0.43090000
H        1.97440000       1.58580000       0.29170000
