21
Properties=species:S:1:pos:R:3 gdb_86668=T pbc="F F F"
C       -0.89710000       0.95790000      -1.06810000
C        0.16050000      -0.09550000      -0.77970000
C        1.59260000       0.06770000      -1.36190000
C        2.13780000      -0.58470000      -0.06450000
C        3.44790000      -0.14010000       0.51850000
O        3.68460000      -0.08560000       1.70170000
C        0.77640000      -0.24830000       0.64460000
C        0.79750000       1.02790000       1.48050000
O        0.17130000      -1.30740000       1.35500000
H       -0.54620000       1.96620000      -0.82560000
H       -1.16860000       0.95010000      -2.12930000
H       -1.80950000       0.77030000      -0.49230000
H       -0.21820000      -1.08660000      -1.05180000
H        1.81160000      -0.42590000      -2.31040000
H        1.88270000       1.12130000      -1.44170000
H        2.18700000      -1.67420000      -0.18700000
H        4.22660000       0.14310000      -0.22900000
H        1.21890000       1.87440000       0.92880000
H       -0.22090000       1.28730000       1.78330000
H        1.41210000       0.88740000       2.37410000
H        0.56060000      -1.33610000       2.23630000
