18
Properties=species:S:1:pos:R:3 gdb_45699=T pbc="F F F"
N       -0.15020000       1.28080000       0.01020000
C       -0.03300000       0.01360000       0.01970000
C        1.17300000      -0.95110000       0.02880000
N        0.63200000      -2.32420000       0.03620000
C       -0.63510000      -2.16660000       0.02860000
C       -1.81720000      -3.09440000       0.00860000
C       -2.98740000      -2.16450000       0.43310000
C       -2.54340000      -0.73010000       0.03290000
N       -1.10160000      -0.86060000       0.02700000
H        0.76780000       1.72380000       0.01520000
H        1.80340000      -0.79190000      -0.85400000
H        1.80530000      -0.78070000       0.90810000
H       -1.95840000      -3.47750000      -1.00860000
H       -1.68060000      -3.95470000       0.66550000
H       -3.93750000      -2.44370000      -0.02560000
H       -3.11720000      -2.21240000       1.51820000
H       -2.91560000      -0.44170000      -0.95850000
H       -2.86670000       0.03400000       0.74440000
