18
Properties=species:S:1:pos:R:3 gdb_98248=T pbc="F F F"
C       -0.90690000       0.82600000       0.69470000
O       -0.40730000      -0.51970000       0.73390000
C        0.94550000      -0.63700000       0.65740000
O        1.67860000       0.30870000       0.54570000
C        1.37520000      -2.09520000       0.73440000
C        2.76380000      -2.29470000       0.13300000
C        1.32840000      -2.61030000       2.20060000
N        0.11510000      -2.49530000       2.80640000
O        2.29460000      -3.11330000       2.73300000
H       -0.60220000       1.31750000      -0.23180000
H       -1.99240000       0.74160000       0.74410000
H       -0.52630000       1.40360000       1.54070000
H        0.62280000      -2.67450000       0.18630000
H        2.76520000      -2.01880000      -0.92460000
H        3.49520000      -1.67380000       0.65180000
H        3.06700000      -3.33750000       0.23480000
H       -0.63210000      -1.97640000       2.37680000
H        0.04290000      -2.77040000       3.77210000
