18
Properties=species:S:1:pos:R:3 gdb_30236=T pbc="F F F"
C       -0.35400000       1.51520000       0.12830000
C        0.00130000       0.06010000       0.02590000
C        0.04400000      -0.67960000      -1.15320000
N        0.48880000      -1.92110000      -0.80670000
C        0.60910000      -3.36510000      -1.06750000
C        0.86840000      -3.52190000       0.49400000
O        2.09240000      -4.07020000       0.90580000
C        0.67060000      -2.01310000       0.54270000
C        0.37770000      -0.79360000       1.11460000
H        0.50360000       2.12680000       0.43360000
H       -0.70790000       1.90310000      -0.83160000
H       -1.14640000       1.68590000       0.86600000
H       -0.16050000      -0.38360000      -2.16990000
H       -0.30830000      -3.83010000      -1.44130000
H        1.45620000      -3.64000000      -1.70300000
H        0.09350000      -4.11320000       0.98950000
H        2.78450000      -3.43600000       0.68680000
H        0.41970000      -0.51560000       2.15670000
