20
Properties=species:S:1:pos:R:3 gdb_87782=T pbc="F F F"
C       -0.21230000       1.39870000      -0.00550000
N        0.00440000      -0.03890000       0.06770000
C        1.37830000      -0.50150000      -0.15780000
C        0.76610000      -0.56050000       1.19030000
C        1.26950000       0.17140000       2.46190000
C        0.85490000      -1.07710000       3.26060000
O        1.61600000      -1.62600000       4.27630000
C       -0.60450000      -1.37800000       3.07790000
C        0.38010000      -1.78090000       1.99510000
H        0.62860000       1.99820000       0.38110000
H       -0.37850000       1.68220000      -1.04990000
H       -1.11020000       1.66320000       0.56280000
H        1.48330000      -1.39870000      -0.76360000
H        2.15040000       0.25080000      -0.32110000
H        2.35290000       0.31400000       2.46240000
H        0.78000000       1.11310000       2.73320000
H        1.31760000      -1.25360000       5.11340000
H       -0.96300000      -2.20850000       3.67820000
H       -1.33600000      -0.59350000       2.89810000
H        0.50230000      -2.81240000       1.68930000
