13
Properties=species:S:1:pos:R:3 gdb_19488=T pbc="F F F"
C       -0.02550000      -1.21860000      -0.01140000
C        0.01000000      -0.01690000       0.00940000
C        0.04570000       1.41150000       0.04300000
C        0.49370000       2.18200000       1.27280000
O        1.24960000       1.45980000       2.22440000
C        2.38920000       1.09960000       1.57210000
N        2.56070000       1.49670000       0.37600000
C        1.36020000       2.21350000       0.03160000
H       -0.05660000      -2.27950000      -0.03810000
H       -0.75560000       1.91250000      -0.49360000
H       -0.10170000       2.97390000       1.70750000
H        3.07360000       0.49570000       2.15340000
H        1.45600000       3.04400000      -0.65640000
