17
Properties=species:S:1:pos:R:3 gdb_112245=T pbc="F F F"
O       -0.33350000       1.61080000      -0.02050000
C       -0.06780000       0.23180000      -0.22010000
C       -1.31070000      -0.62330000      -0.01160000
C       -1.08700000      -2.16450000       0.09820000
C       -1.61520000      -2.06080000       1.52560000
N       -1.82770000      -2.89000000       2.44480000
N       -1.79790000      -0.65910000       1.38720000
C       -2.43640000       0.24990000       2.18640000
O       -2.83730000       0.00180000       3.30280000
H       -0.21070000       1.80980000       0.91220000
H        0.26850000       0.11590000      -1.25700000
H        0.74020000      -0.12420000       0.43430000
H       -2.09380000      -0.32400000      -0.71450000
H       -1.70230000      -2.77410000      -0.56470000
H       -0.04580000      -2.48600000       0.02100000
H       -2.21290000      -2.42220000       3.26720000
H       -2.54210000       1.23720000       1.69860000
