17
Properties=species:S:1:pos:R:3 gdb_83076=T pbc="F F F"
O        0.02490000       1.31810000      -0.10870000
C       -0.03500000      -0.05490000       0.05000000
C       -0.44090000      -0.72360000       1.31270000
C       -1.17120000       0.12730000       2.35320000
C       -2.43670000       0.57370000       1.64930000
C       -2.56000000       0.03270000       0.43260000
C       -1.38830000      -0.81200000       0.07720000
C       -1.52790000      -2.01010000      -0.76520000
O       -2.54990000      -2.34920000      -1.31430000
H       -0.83090000       1.68560000       0.15320000
H        0.74670000      -0.53620000      -0.53040000
H        0.10820000      -1.60170000       1.63430000
H       -1.39960000      -0.44790000       3.25810000
H       -0.55360000       0.97860000       2.66890000
H       -3.14690000       1.25220000       2.10810000
H       -3.38890000       0.16820000      -0.25020000
H       -0.58710000      -2.59740000      -0.88560000
