23
Properties=species:S:1:pos:R:3 gdb_59666=T pbc="F F F"
C       -1.25520000      -0.63130000      -0.48060000
C        0.02940000       0.05560000       0.00620000
C       -0.18400000       1.56990000       0.15120000
C        0.60030000      -0.53200000       1.30700000
C       -0.36690000      -0.80980000       2.48540000
O       -0.15430000      -2.23680000       2.38340000
C        0.84700000      -2.04070000       1.38400000
C        1.11880000      -3.06310000       0.33110000
C        2.14080000      -2.78860000       1.42700000
H       -2.09930000      -0.42250000       0.18540000
H       -1.52940000      -0.26120000      -1.47380000
H       -1.13930000      -1.71580000      -0.54290000
H        0.79970000      -0.09950000      -0.76360000
H       -0.92860000       1.78850000       0.92610000
H        0.74360000       2.08290000       0.42650000
H       -0.54610000       2.00780000      -0.78450000
H        1.47600000       0.05420000       1.60260000
H       -0.03700000      -0.42040000       3.45600000
H       -1.41890000      -0.54670000       2.33370000
H        0.55830000      -3.99020000       0.39200000
H        1.33860000      -2.73250000      -0.67920000
H        3.05490000      -2.26520000       1.16390000
H        2.25050000      -3.53700000       2.20450000
