23
Properties=species:S:1:pos:R:3 gdb_107789=T pbc="F F F"
C       -0.14350000       1.52740000       0.06690000
C       -0.01050000      -0.00100000       0.02910000
C        0.69450000      -0.52840000      -1.19880000
C        0.08210000      -0.34930000      -2.62250000
C        0.82120000      -1.63110000      -2.99220000
C        2.16190000      -1.63650000      -2.23630000
C        0.89320000      -2.06650000      -1.54930000
C        2.24330000      -0.35120000      -1.41590000
C        2.84870000       0.91130000      -2.02120000
H        0.83520000       2.01580000       0.09860000
H       -0.67230000       1.90120000      -0.81630000
H       -0.70300000       1.84910000       0.95070000
H        0.52060000      -0.34600000       0.92650000
H       -1.01160000      -0.45040000       0.07880000
H       -1.00000000      -0.51490000      -2.59950000
H        0.29240000       0.57570000      -3.17090000
H        0.67660000      -2.25880000      -3.86250000
H        2.97780000      -2.26790000      -2.56720000
H        0.61320000      -2.98160000      -1.04750000
H        2.73760000      -0.57490000      -0.46180000
H        2.39670000       1.16590000      -2.98390000
H        2.73830000       1.77470000      -1.35640000
H        3.92170000       0.76820000      -2.19450000
