21
Properties=species:S:1:pos:R:3 gdb_89490=T pbc="F F F"
C       -0.16470000       1.52420000      -0.05630000
C        0.03440000       0.01940000       0.00560000
O        0.85090000      -0.43780000      -1.10230000
C        1.94790000      -1.18680000      -0.53620000
C        2.59710000      -2.02460000      -1.61120000
C        2.84500000      -0.16280000       0.18250000
O        2.05110000       0.23850000       1.31770000
C        0.82840000      -0.50570000       1.21740000
C        1.29150000      -1.86540000       0.68230000
H        0.77820000       2.04600000       0.12090000
H       -0.55220000       1.81060000      -1.03790000
H       -0.88660000       1.84440000       0.70300000
H       -0.94200000      -0.48580000      -0.05100000
H        2.99600000      -1.38820000      -2.40720000
H        3.41930000      -2.61570000      -1.19710000
H        1.86590000      -2.70440000      -2.05690000
H        3.79530000      -0.58940000       0.53010000
H        3.04860000       0.69930000      -0.46210000
H        0.31130000      -0.46290000       2.17590000
H        0.48050000      -2.53930000       0.39880000
H        1.99590000      -2.36790000       1.34820000
