22
Properties=species:S:1:pos:R:3 gdb_75544=T pbc="F F F"
C       -0.08610000       1.52200000       0.03440000
C       -0.00040000       0.01590000       0.00890000
C       -0.01600000      -0.65430000      -1.15050000
C        0.05620000      -2.15160000      -1.28830000
C        0.46510000      -2.83890000       0.02180000
C       -0.26900000      -2.20260000       1.20580000
C        0.07310000      -0.72660000       1.31050000
C        1.05530000      -0.28240000       2.34820000
N       -0.38490000      -0.09310000       2.56560000
H        0.72420000       1.97750000       0.61690000
H       -0.02750000       1.92710000      -0.97860000
H       -1.03060000       1.87140000       0.47130000
H       -0.09180000      -0.08840000      -2.07720000
H       -0.92260000      -2.53040000      -1.62120000
H        0.75510000      -2.41480000      -2.09280000
H        0.25950000      -3.91310000      -0.02970000
H        1.54700000      -2.72890000       0.16850000
H       -1.35360000      -2.30290000       1.06740000
H       -0.02340000      -2.70330000       2.14710000
H        1.52430000      -1.02700000       2.98690000
H        1.67480000       0.58650000       2.14310000
H       -0.63040000       0.88040000       2.40680000
