17
Properties=species:S:1:pos:R:3 gdb_125522=T pbc="F F F"
C        0.05820000       1.43600000      -0.02170000
C        0.02050000      -0.05300000      -0.01100000
N        0.08810000      -0.80890000      -1.10370000
N        0.00660000      -2.03420000      -0.59200000
C        0.07470000      -3.24090000      -1.39480000
C        1.48780000      -3.48800000      -1.92370000
O        1.41180000      -4.67310000      -2.69160000
N       -0.09910000      -2.05340000       0.73030000
N       -0.09430000      -0.80320000       1.11520000
H        0.87980000       1.80560000       0.59870000
H        0.19030000       1.80090000      -1.04130000
H       -0.86980000       1.84940000       0.38440000
H       -0.24200000      -4.06500000      -0.75450000
H       -0.62250000      -3.14600000      -2.23020000
H        1.80540000      -2.62280000      -2.52290000
H        2.18010000      -3.58680000      -1.07400000
H        2.28170000      -4.85540000      -3.05770000
