20
Properties=species:S:1:pos:R:3 gdb_22149=T pbc="F F F"
C       -0.15620000       1.53050000      -0.09530000
C       -0.02580000       0.03070000      -0.05900000
C        0.02680000      -0.69200000       1.26190000
C        1.30890000      -0.38900000       2.05950000
C        1.33560000      -1.10900000       3.41890000
C        2.64620000      -0.89440000       4.14040000
O        2.76150000      -0.41760000       5.23960000
N        0.05370000      -0.70360000      -1.10310000
O        0.01870000       0.06280000      -2.28030000
H        0.77540000       1.99340000      -0.43970000
H       -0.93050000       1.82400000      -0.80940000
H       -0.39990000       1.93440000       0.88960000
H       -0.84560000      -0.40450000       1.86490000
H       -0.04400000      -1.76700000       1.07170000
H        2.17800000      -0.69230000       1.46250000
H        1.40360000       0.69130000       2.22200000
H        0.52040000      -0.77610000       4.06840000
H        1.22080000      -2.19030000       3.25310000
H        3.54380000      -1.21360000       3.55870000
H        0.05220000      -0.61540000      -2.96290000
