19
Properties=species:S:1:pos:R:3 gdb_8063=T pbc="F F F"
C        0.52200000       1.17520000       0.26120000
C        0.19780000      -0.29350000       0.14620000
C        0.37340000      -1.24380000      -1.06810000
N       -0.21350000      -2.19510000      -0.01250000
C        0.76890000      -1.49410000       0.94210000
C       -1.17520000      -1.01690000       0.28590000
C       -1.99390000      -1.15740000       1.55700000
O       -2.79260000      -2.32700000       1.47580000
H        1.58640000       1.35720000       0.07710000
H       -0.04980000       1.76160000      -0.46620000
H        0.28520000       1.55620000       1.26040000
H       -0.27560000      -1.09910000      -1.93660000
H        1.39120000      -1.50820000      -1.36890000
H        1.81110000      -1.77120000       0.75900000
H        0.52870000      -1.59800000       2.00060000
H       -1.86620000      -0.86880000      -0.55250000
H       -1.37330000      -1.16190000       2.46430000
H       -2.68150000      -0.30840000       1.64520000
H       -2.21630000      -3.02070000       1.13060000
