17
Properties=species:S:1:pos:R:3 gdb_125246=T pbc="F F F"
C        0.23160000       1.47740000      -0.09620000
C        0.03500000      -0.00310000      -0.08240000
C        0.11290000      -0.95290000      -1.08140000
C       -0.18840000      -2.18580000      -0.45300000
C       -0.21030000      -3.55570000      -1.06300000
C        1.19930000      -4.07740000      -1.29840000
O        1.60840000      -4.50040000      -2.34760000
N       -0.42920000      -2.01960000       0.84590000
N       -0.28800000      -0.69240000       1.04330000
H        1.02950000       1.78850000       0.58770000
H        0.50580000       1.80810000      -1.09980000
H       -0.67990000       2.01220000       0.19430000
H        0.34930000      -0.77890000      -2.11920000
H       -0.70290000      -4.23730000      -0.35870000
H       -0.74970000      -3.57800000      -2.01370000
H        1.84970000      -4.03290000      -0.39550000
H       -0.43920000      -0.32120000       1.96640000
