16
Properties=species:S:1:pos:R:3 gdb_83995=T pbc="F F F"
O       -0.17480000       1.40270000      -0.46590000
C       -0.04960000       0.07050000      -0.11320000
C       -1.31030000      -0.66440000       0.26440000
O       -2.45540000       0.14590000       0.25240000
C       -3.39450000      -0.17710000      -0.73300000
O       -3.11890000       0.42920000      -1.98160000
C       -2.04550000      -0.02030000      -2.69900000
N       -1.01840000      -0.66430000      -2.35820000
C       -0.60920000      -1.00910000      -1.04850000
H       -1.08690000       1.66040000      -0.27010000
H        0.87590000      -0.14800000       0.41100000
H       -1.31110000      -1.39990000       1.06530000
H       -3.46410000      -1.26480000      -0.85990000
H       -4.35030000       0.24300000      -0.41610000
H       -2.17280000       0.27670000      -3.73820000
H       -0.05800000      -1.94530000      -1.02190000
