21
Properties=species:S:1:pos:R:3 gdb_83875=T pbc="F F F"
C       -0.21090000       1.54290000      -0.19450000
C        0.00290000       0.05050000      -0.05970000
C        1.34910000      -0.57730000      -0.33750000
O        2.42700000       0.28590000      -0.59120000
C        3.20670000       0.53980000       0.55160000
O        2.45380000       1.09520000       1.59240000
C        1.54890000       0.13630000       2.15260000
C        0.67020000       0.86130000       3.16180000
C        0.78490000      -0.60830000       1.06610000
H        0.65940000       2.10480000       0.14450000
H       -0.39840000       1.80550000      -1.24150000
H       -1.07940000       1.86690000       0.38880000
H       -0.83930000      -0.54680000      -0.40250000
H        1.40330000      -1.49290000      -0.92170000
H        3.69580000      -0.38980000       0.89590000
H        3.95560000       1.27810000       0.25860000
H        2.15490000      -0.61700000       2.68690000
H        0.05740000       1.62150000       2.67240000
H        0.00600000       0.14940000       3.66120000
H        1.29040000       1.34920000       3.91910000
H        0.40090000      -1.56570000       1.40760000
