20
Properties=species:S:1:pos:R:3 gdb_104347=T pbc="F F F"
C        0.08090000       1.39220000      -0.08900000
O       -0.00370000      -0.02200000      -0.00760000
C       -1.29010000      -0.58950000       0.00730000
C       -2.12970000      -0.21890000      -1.21000000
C       -1.07010000      -2.09500000       0.16480000
C       -0.41280000      -2.37060000       1.51860000
N       -1.09130000      -1.70010000       2.62330000
C       -1.79270000      -0.68850000       2.34920000
O       -2.02680000      -0.09140000       1.14570000
H        1.12630000       1.64600000       0.09870000
H       -0.19690000       1.76560000      -1.08310000
H       -0.54750000       1.87810000       0.66520000
H       -1.58360000      -0.46400000      -2.12460000
H       -3.07020000      -0.77410000      -1.19770000
H       -2.36890000       0.84680000      -1.21070000
H       -2.04230000      -2.59560000       0.10720000
H       -0.45180000      -2.45590000      -0.66160000
H       -0.39920000      -3.44540000       1.72680000
H        0.63120000      -2.03670000       1.50170000
H       -2.33780000      -0.15720000       3.12780000
