19
Properties=species:S:1:pos:R:3 gdb_94869=T pbc="F F F"
O        0.29010000       1.43180000      -0.15720000
C        0.08400000       0.03070000      -0.07150000
C        0.59080000      -0.58810000       1.30840000
O       -0.52820000      -1.09080000       2.07480000
C       -1.63760000      -0.53340000       1.45250000
C       -3.10940000      -0.90760000       1.14800000
C       -2.74100000       0.36080000       0.26930000
C       -2.09120000       0.96330000       1.53990000
C       -1.39250000      -0.38280000      -0.04240000
H        1.23840000       1.59680000      -0.14220000
H        0.60050000      -0.46660000      -0.90320000
H        1.28490000      -1.42150000       1.16060000
H        1.10060000       0.20380000       1.87280000
H       -3.28120000      -1.84400000       0.61140000
H       -3.84900000      -0.74000000       1.93440000
H       -3.40410000       0.85940000      -0.43410000
H       -2.77180000       1.20960000       2.35870000
H       -1.33430000       1.72730000       1.38360000
H       -1.52450000      -1.30840000      -0.61080000
