21
Properties=species:S:1:pos:R:3 gdb_96079=T pbc="F F F"
C        0.00190000       1.55110000       0.03750000
C        0.02960000       0.01900000      -0.01340000
C        0.74100000      -0.49460000      -1.27290000
O        0.85870000      -1.90570000      -1.25520000
C        1.76430000      -2.37060000      -0.27330000
C        1.56230000      -1.75400000       1.10870000
C        1.78140000      -2.67420000       2.28570000
O        2.13000000      -0.43600000       1.26220000
C        0.70160000      -0.56450000       1.21340000
H        1.01830000       1.95180000       0.10500000
H       -0.47110000       1.96740000      -0.85790000
H       -0.55830000       1.90800000       0.90760000
H       -0.99990000      -0.36400000      -0.03000000
H        0.16130000      -0.24490000      -2.16630000
H        1.73170000      -0.02220000      -1.35920000
H        1.61690000      -3.45380000      -0.22170000
H        2.80630000      -2.18390000      -0.58360000
H        2.78090000      -3.12250000       2.24530000
H        1.69710000      -2.11950000       3.22340000
H        1.04860000      -3.48800000       2.28870000
H        0.20490000      -0.36860000       2.16640000
