22
Properties=species:S:1:pos:R:3 gdb_96369=T pbc="F F F"
C       -0.10900000       1.51690000      -0.11710000
C        0.06870000       0.01140000       0.02910000
O        0.74470000      -0.42240000      -1.14970000
C        0.85790000      -1.83240000      -1.25000000
C        1.65570000      -2.41610000      -0.08410000
C        1.01340000      -1.98770000       1.24190000
C        0.81790000      -0.48050000       1.27090000
C        1.81750000       0.37660000       1.95560000
N        0.52460000       0.06810000       2.60360000
H        0.85730000       2.01120000      -0.24570000
H       -0.71010000       1.72110000      -1.00640000
H       -0.62380000       1.95550000       0.74270000
H       -0.93180000      -0.46090000       0.05330000
H       -0.14710000      -2.28930000      -1.28190000
H        1.34540000      -2.02830000      -2.20960000
H        1.69510000      -3.50820000      -0.16680000
H        2.68580000      -2.04420000      -0.13820000
H        0.03180000      -2.47060000       1.34870000
H        1.61210000      -2.30040000       2.10230000
H        2.68300000      -0.08130000       2.42780000
H        1.98760000       1.38550000       1.59310000
H       -0.09040000       0.87530000       2.53180000
