13
Properties=species:S:1:pos:R:3 gdb_130896=T pbc="F F F"
O       -0.10350000      -0.04330000      -0.00150000
C       -0.01660000       1.15710000       0.00670000
C        1.25480000       1.93070000      -0.00110000
N        2.38030000       1.25240000      -0.01920000
N        3.49550000       1.95680000      -0.02580000
C        3.66740000       3.36300000      -0.01600000
O        4.78500000       3.83680000      -0.02430000
C        2.39450000       4.06340000       0.00400000
C        1.23540000       3.36240000       0.01100000
H       -0.92100000       1.80690000       0.02150000
H        4.35090000       1.41210000      -0.03990000
H        2.43150000       5.14590000       0.01270000
H        0.27560000       3.87110000       0.02590000
