14
Properties=species:S:1:pos:R:3 gdb_19778=T pbc="F F F"
O        0.01550000       0.00610000      -0.03980000
C       -0.01500000       1.21020000       0.00430000
C       -1.25420000       2.06930000      -0.00090000
C       -1.43400000       3.17790000       1.02660000
C       -0.81880000       3.49560000      -0.30240000
C        0.70580000       3.48580000      -0.34040000
O        1.30880000       3.11390000       0.89970000
C        1.20460000       2.11530000      -0.13380000
H       -2.14250000       1.61920000      -0.42620000
H       -2.45960000       3.48990000       1.18900000
H       -0.79790000       3.19250000       1.90120000
H       -1.34450000       4.10840000      -1.02370000
H        1.24480000       4.22690000      -0.92260000
H        2.13870000       1.70690000      -0.50720000
