13
Properties=species:S:1:pos:R:3 gdb_125719=T pbc="F F F"
C       -0.24480000       1.47750000      -0.00640000
C        0.00590000       0.00280000      -0.00540000
N        0.07630000      -0.60990000      -1.12710000
O        0.31100000      -1.98610000      -1.10020000
C        0.46770000      -2.70340000       0.06100000
N        0.67620000      -3.93640000       0.07850000
O        0.38810000      -2.02610000       1.24070000
C        0.16130000      -0.67960000       1.30330000
O        0.10010000      -0.13250000       2.36350000
H        0.57360000       1.99920000       0.49890000
H       -0.33660000       1.83860000      -1.03110000
H       -1.15890000       1.70480000       0.55030000
H        0.71120000      -4.31330000      -0.86610000
