15
Properties=species:S:1:pos:R:3 gdb_2589=T pbc="F F F"
C        0.22970000       1.37850000       0.25810000
N       -0.21280000       0.08100000      -0.24450000
C        0.61560000      -0.48080000      -1.27540000
C        2.02610000      -1.00880000      -0.99020000
C        0.90040000      -1.96540000      -1.26930000
C        0.42180000       0.14330000      -2.56950000
N        0.28830000       0.65400000      -3.59860000
H        1.25700000       1.37870000       0.65800000
H        0.18390000       2.11380000      -0.55140000
H       -0.45300000       1.70650000       1.04600000
H       -0.33250000      -0.58450000       0.50830000
H        2.79210000      -0.87680000      -1.74510000
H        2.36750000      -0.90540000       0.03390000
H        0.48240000      -2.53090000      -0.44270000
H        0.88410000      -2.48600000      -2.21910000
