14
Properties=species:S:1:pos:R:3 gdb_48046=T pbc="F F F"
O       -0.03850000      -0.04580000       0.00200000
C        0.01060000       1.16180000       0.00710000
C        1.23620000       1.92230000      -0.00010000
C        2.24200000       2.58880000      -0.00590000
C        3.48120000       3.34410000      -0.01320000
O        3.19880000       4.73470000      -0.00330000
C        4.37760000       5.50710000      -0.00980000
C        4.01680000       6.92610000       0.00120000
N        3.76680000       8.05280000       0.00960000
H       -0.90560000       1.78500000       0.01800000
H        4.08650000       3.06330000       0.86540000
H        4.07020000       3.07270000      -0.90580000
H        5.00570000       5.29540000       0.87090000
H        4.98960000       5.30510000      -0.90400000
