20
Properties=species:S:1:pos:R:3 gdb_99035=T pbc="F F F"
C       -0.49150000       1.22660000       0.36100000
C        0.63660000       0.25490000       0.02350000
C        0.49170000      -0.35340000      -1.36830000
O       -0.50140000      -0.17600000      -2.05950000
N        1.56170000      -1.11660000      -1.75390000
C        1.77740000      -1.81460000      -2.96280000
N        0.69960000      -1.88670000      -3.79840000
N        2.93810000      -2.33000000      -3.10370000
C        3.18380000      -3.08200000      -4.31710000
H       -0.50190000       2.07140000      -0.33220000
H       -1.46290000       0.73280000       0.28830000
H       -0.37000000       1.61360000       1.37640000
H        1.61440000       0.74830000       0.09220000
H        0.66670000      -0.57060000       0.74710000
H        2.36480000      -1.17790000      -1.14560000
H       -0.07040000      -1.25940000      -3.59630000
H        0.88070000      -2.13670000      -4.75510000
H        4.19320000      -3.50010000      -4.28520000
H        2.48080000      -3.92050000      -4.44890000
H        3.12260000      -2.45920000      -5.22640000
