17
Properties=species:S:1:pos:R:3 gdb_43758=T pbc="F F F"
N       -0.18570000       1.18150000      -0.15470000
C       -0.16890000      -0.06510000      -0.04970000
O        0.90860000      -0.96080000      -0.12410000
C       -0.02400000      -2.08340000      -0.09350000
C       -0.71590000      -2.08210000       1.22190000
C       -1.19380000      -1.13350000       0.11340000
C        0.24740000      -3.20740000      -1.01470000
C        0.94920000      -2.97190000      -2.30030000
N        1.63460000      -3.67040000      -1.19690000
H        0.75310000       1.55610000      -0.30050000
H       -1.38860000      -2.91520000       1.40310000
H       -0.21500000      -1.68930000       2.10110000
H       -2.20060000      -1.13120000      -0.27670000
H       -0.48260000      -4.01080000      -0.94640000
H        0.71490000      -3.59290000      -3.15980000
H        1.24700000      -1.95360000      -2.52880000
H        2.26530000      -3.01800000      -0.73440000
