21
Properties=species:S:1:pos:R:3 gdb_116517=T pbc="F F F"
O       -0.03030000       1.43920000       0.08820000
C        0.01890000       0.02390000      -0.00650000
C       -1.41290000      -0.51640000      -0.02970000
C       -1.39490000      -2.04410000      -0.21240000
C       -2.70500000      -2.64570000      -0.74430000
O       -3.90310000      -2.03400000      -0.28440000
C       -3.96040000      -1.63790000       1.05870000
O       -3.53980000      -0.31880000       1.26000000
C       -2.13910000      -0.11060000       1.26650000
H        0.86830000       1.76970000       0.17430000
H        0.53850000      -0.29330000      -0.92440000
H        0.56640000      -0.41400000       0.84580000
H       -1.93410000      -0.04450000      -0.87150000
H       -0.60320000      -2.33480000      -0.91520000
H       -1.12600000      -2.50820000       0.74490000
H       -2.74530000      -2.53840000      -1.83330000
H       -2.72290000      -3.72440000      -0.52330000
H       -5.01740000      -1.65530000       1.33690000
H       -3.39570000      -2.33340000       1.70510000
H       -1.68100000      -0.65420000       2.11290000
H       -2.00110000       0.95780000       1.43880000
