19
Properties=species:S:1:pos:R:3 gdb_115700=T pbc="F F F"
N       -0.20080000       1.65540000      -0.26180000
C       -0.09690000       0.28810000       0.26210000
C       -1.34600000      -0.48250000      -0.12910000
N       -1.51470000      -0.79940000      -1.57180000
H       -1.96350000      -0.09490000      -2.14660000
H        0.06080000      -1.91490000      -1.57880000
C       -2.29610000      -2.00710000      -1.20300000
C       -1.52460000      -2.01080000       0.15000000
C       -0.22580000      -2.80770000       0.07680000
O        0.51370000      -2.59690000      -1.03330000
O        0.12710000      -3.57600000       0.93080000
H       -0.82480000       2.20540000       0.32180000
H        0.70300000       2.11430000      -0.21750000
H        0.78110000      -0.18470000      -0.18620000
H        0.02600000       0.22560000       1.35690000
H       -2.22870000       0.04130000       0.27450000
H       -3.36640000      -1.81690000      -1.04790000
H       -2.16890000      -2.86250000      -1.87180000
H       -2.06200000      -2.30150000       1.04930000
