17
Properties=species:S:1:pos:R:3 gdb_97989=T pbc="F F F"
O       -0.30670000       0.23260000      -1.48760000
C       -0.28420000      -0.19800000      -0.13500000
C       -1.59340000      -0.61540000       0.36910000
C       -2.69250000      -0.91040000       0.76890000
C       -4.01160000      -1.34780000       1.24260000
N       -4.35330000      -2.74690000       0.96260000
C       -4.36000000      -3.05440000      -0.46690000
C       -4.67720000      -4.46630000      -0.69150000
N       -4.90500000      -5.58410000      -0.87150000
H       -0.96300000       0.93370000      -1.55800000
H        0.41510000      -1.04070000      -0.10320000
H        0.12720000       0.57820000       0.52980000
H       -4.08210000      -1.20270000       2.32620000
H       -4.79030000      -0.71400000       0.79880000
H       -3.68690000      -3.35450000       1.42940000
H       -5.13340000      -2.44480000      -0.95130000
H       -3.40990000      -2.82680000      -0.97880000
