19
Properties=species:S:1:pos:R:3 gdb_71712=T pbc="F F F"
C       -0.00790000       1.50050000      -0.00430000
C        0.01340000      -0.00390000      -0.06860000
C        0.58600000      -0.81790000      -1.26130000
C       -0.30980000      -1.96900000      -0.74360000
C        0.11540000      -2.24300000       0.71970000
C        0.35600000      -0.81620000       1.20900000
C       -1.01440000      -1.44770000       1.34020000
C       -1.29590000      -0.91420000      -0.08780000
O       -2.55200000      -0.54860000      -0.51720000
H        1.00370000       1.91220000       0.09480000
H       -0.45340000       1.93450000      -0.90650000
H       -0.59300000       1.84670000       0.85510000
H        0.23800000      -0.42560000      -2.22460000
H        1.66710000      -0.98240000      -1.30540000
H       -0.63350000      -2.80620000      -1.36130000
H        0.63430000      -3.10290000       1.12210000
H        1.06140000      -0.56510000       1.99130000
H       -1.64010000      -1.63990000       2.20070000
H       -2.50340000      -0.29730000      -1.44670000
