16
Properties=species:S:1:pos:R:3 gdb_12939=T pbc="F F F"
C       -0.02580000       1.53890000       0.00290000
C        0.14240000       0.03350000      -0.04910000
C        0.73820000      -0.75450000      -1.17550000
C        1.91390000      -0.00460000      -1.81250000
C        2.61630000      -0.06450000      -0.42580000
O        3.74380000       0.13230000      -0.07230000
C        1.43210000      -0.73460000       0.22310000
O        1.50900000      -1.73490000       1.16440000
H        0.82050000       2.07260000      -0.43560000
H       -0.92930000       1.84480000      -0.53570000
H       -0.12620000       1.87990000       1.03870000
H       -0.67990000      -0.50890000       0.41740000
H        0.23300000      -1.60160000      -1.62030000
H        2.47690000      -0.60410000      -2.53380000
H        1.71740000       0.98010000      -2.24330000
H        1.33580000      -1.35990000       2.03460000
