22
Properties=species:S:1:pos:R:3 gdb_109779=T pbc="F F F"
C       -0.58240000       1.29460000       0.92470000
C       -0.05670000      -0.03990000       0.43610000
C        1.05470000      -0.18770000      -0.55870000
C        1.76430000       0.98950000      -1.17850000
O        3.05430000       0.54370000      -1.57850000
N        1.23760000      -0.59470000       0.83750000
C        2.11690000       0.12860000       1.71100000
C        2.35030000      -0.47530000       3.07280000
C        3.43330000      -0.52770000       2.02180000
H        0.15840000       2.09530000       0.89480000
H       -1.43300000       1.60690000       0.30940000
H       -0.93710000       1.20810000       1.95750000
H       -0.83710000      -0.80070000       0.39740000
H        1.01280000      -1.03300000      -1.24560000
H        1.17790000       1.33540000      -2.04590000
H        1.83840000       1.83290000      -0.47970000
H        3.49980000       1.27470000      -2.01710000
H        2.12360000       1.21700000       1.66610000
H        2.47400000       0.19290000       3.91800000
H        1.82250000      -1.39680000       3.28850000
H        3.62030000      -1.48190000       1.54430000
H        4.30600000       0.10480000       2.13830000
