19
Properties=species:S:1:pos:R:3 gdb_77594=T pbc="F F F"
O        0.01620000       1.37730000      -0.09810000
C        0.00630000      -0.02990000       0.02670000
C        0.28250000      -0.67820000       1.39220000
O        1.50820000      -1.22720000       1.73590000
C       -0.76790000      -0.32700000       2.40470000
C       -1.08160000      -1.37020000       1.35150000
C       -1.39840000      -0.65910000       0.05250000
C       -2.67110000       0.02260000      -0.35020000
C       -2.15830000      -1.16860000      -1.13200000
H        0.92690000       1.66420000      -0.21740000
H        0.64050000      -0.50440000      -0.73560000
H        1.92920000      -0.64930000       2.38060000
H       -0.57170000      -0.72920000       3.39440000
H       -1.26440000       0.63930000       2.38570000
H       -1.32880000      -2.39420000       1.60140000
H       -3.54690000      -0.11420000       0.27590000
H       -2.58240000       1.00470000      -0.80160000
H       -1.74280000      -0.99500000      -2.12000000
H       -2.68710000      -2.11120000      -1.03120000
