19
Properties=species:S:1:pos:R:3 gdb_100503=T pbc="F F F"
C        0.87140000       1.09380000      -1.99260000
O        0.17590000       0.22040000      -1.12570000
C        1.00260000      -0.73300000      -0.49640000
C        0.19420000      -1.37590000       0.63040000
C        1.49600000      -1.83090000      -1.45740000
O        2.58030000      -2.35510000      -1.30960000
C        0.57620000      -2.22890000      -2.50170000
C       -0.17640000      -2.58380000      -3.37650000
C       -1.07970000      -3.01670000      -4.42780000
H        1.65910000       1.64630000      -1.45860000
H        1.33110000       0.56230000      -2.83800000
H        0.14060000       1.80570000      -2.38310000
H        1.90840000      -0.26030000      -0.08630000
H       -0.68980000      -1.87570000       0.22420000
H        0.80360000      -2.10850000       1.16550000
H       -0.13520000      -0.60340000       1.32970000
H       -1.47630000      -4.01400000      -4.20710000
H       -1.92690000      -2.33190000      -4.53600000
H       -0.55980000      -3.07460000      -5.39010000
