16
Properties=species:S:1:pos:R:3 gdb_35484=T pbc="F F F"
C       -0.12740000      -1.25270000      -0.28870000
C       -0.07340000      -0.06600000      -0.10780000
C       -0.02010000       1.38580000       0.06720000
O       -0.62510000       1.81210000       1.30300000
C        0.43560000       2.25620000       2.13830000
C        1.48880000       1.14540000       2.35640000
N        2.32390000       1.66440000       1.21320000
C        1.48460000       2.92230000       1.21800000
C        1.39320000       1.97980000       0.09450000
H       -0.17180000      -2.30300000      -0.44080000
H       -0.58270000       1.85350000      -0.75210000
H        0.01040000       2.78110000       2.99220000
H        2.06330000       1.27330000       3.27700000
H        1.14910000       0.11100000       2.26330000
H        1.89030000       3.92610000       1.21320000
H        1.89790000       2.15410000      -0.84810000
