23
Properties=species:S:1:pos:R:3 gdb_53692=T pbc="F F F"
C        0.00440000       1.47670000       0.01910000
C       -0.00620000       0.02160000       0.03270000
C       -0.02350000      -1.18140000       0.04340000
C       -0.01560000      -2.63780000       0.05800000
O       -1.33860000      -3.13650000       0.00210000
C       -1.38760000      -4.54930000       0.01430000
C       -2.84740000      -4.99930000      -0.01140000
C       -2.92840000      -6.52560000      -0.13570000
C       -3.60770000      -4.48850000       1.21860000
H        0.55370000       1.86510000      -0.84560000
H       -1.01520000       1.87420000      -0.03100000
H        0.47350000       1.88230000       0.92230000
H        0.57170000      -3.01840000      -0.79640000
H        0.49110000      -3.00160000       0.96930000
H       -0.84630000      -4.95580000      -0.85780000
H       -0.88580000      -4.94210000       0.91780000
H       -3.29930000      -4.55160000      -0.90650000
H       -2.46830000      -7.01710000       0.73000000
H       -3.97020000      -6.85680000      -0.18620000
H       -2.41840000      -6.88650000      -1.03540000
H       -4.66940000      -4.74900000       1.15970000
H       -3.20620000      -4.93480000       2.13700000
H       -3.52050000      -3.40320000       1.30460000
