14
Properties=species:S:1:pos:R:3 gdb_16940=T pbc="F F F"
O       -0.02480000       0.00770000      -0.00050000
C        0.00970000       1.20010000      -0.01160000
O       -1.09520000       2.01030000       0.01620000
C       -0.55960000       3.35690000       0.06120000
C       -0.04000000       3.59940000       1.49100000
C        1.26060000       2.74070000       1.45380000
C        1.18480000       2.18470000       0.00470000
O        0.60930000       3.28390000      -0.72020000
H       -1.28710000       4.04580000      -0.36120000
H        0.17110000       4.65920000       1.64640000
H       -0.76200000       3.26930000       2.23920000
H        2.15500000       3.35570000       1.56570000
H        1.28460000       1.94850000       2.20420000
H        2.10150000       1.82990000      -0.45650000
