20
Properties=species:S:1:pos:R:3 gdb_29777=T pbc="F F F"
C       -0.06430000       1.44780000      -0.01300000
N       -0.01710000       0.00400000      -0.00600000
C        0.00650000      -0.79740000      -1.13070000
C        0.04570000      -2.11210000      -0.72120000
N       -0.00010000      -3.27040000      -1.52800000
C        0.03980000      -2.12170000       0.70540000
C        0.04970000      -3.33410000       1.58290000
C        0.00260000      -0.79830000       1.11190000
N        0.00600000      -0.20640000       2.39820000
H        0.71120000       1.85340000      -0.67130000
H       -1.03790000       1.81950000      -0.35600000
H        0.10900000       1.79780000       1.00510000
H       -0.01740000      -0.36550000      -2.11860000
H        0.21850000      -3.06680000      -2.49570000
H        0.64280000      -3.98350000      -1.20290000
H        1.00490000      -3.87740000       1.54990000
H       -0.12650000      -3.06220000       2.62890000
H       -0.73000000      -4.04800000       1.29070000
H       -0.89540000      -0.27820000       2.86080000
H        0.69290000      -0.64040000       3.00380000
