21
Properties=species:S:1:pos:R:3 gdb_45366=T pbc="F F F"
O        0.00670000      -0.09960000       0.23410000
C       -0.01220000       1.09790000       0.06860000
C       -1.31860000       1.88470000      -0.02320000
C       -1.24350000       3.03250000      -1.05160000
C       -0.84840000       2.50600000      -2.45560000
C        0.71360000       2.52750000      -2.47760000
C        1.13350000       3.06530000      -1.08510000
C       -0.06230000       3.95490000      -0.69910000
C        1.26910000       1.92030000      -0.05960000
H       -2.12280000       1.17760000      -0.24600000
H       -1.52160000       2.30160000       0.97400000
H       -2.20130000       3.56010000      -1.06980000
H       -1.25550000       1.50850000      -2.64520000
H       -1.24990000       3.16390000      -3.23180000
H        1.14250000       1.54150000      -2.67890000
H        1.07480000       3.19590000      -3.26450000
H        2.07550000       3.61900000      -1.13000000
H       -0.08350000       4.86040000      -1.31610000
H       -0.05180000       4.26630000       0.35100000
H        1.48840000       2.34300000       0.93160000
H        2.08580000       1.23550000      -0.30520000
