20
Properties=species:S:1:pos:R:3 gdb_64169=T pbc="F F F"
C       -0.44940000       1.52670000       0.20830000
C        0.00740000       0.08770000       0.03610000
C       -1.07440000      -0.76740000      -0.61590000
O        1.24050000       0.01660000      -0.73570000
C        1.85670000      -0.86770000       0.20790000
C        0.74260000      -0.60800000       1.25970000
C        1.18770000       0.30910000       2.40670000
C        0.09180000      -1.79570000       1.79970000
N       -0.41940000      -2.73560000       2.23880000
H        0.33770000       2.16050000       0.61950000
H       -0.72880000       1.93140000      -0.76950000
H       -1.32700000       1.58230000       0.86010000
H       -1.32490000      -0.34580000      -1.59370000
H       -0.73820000      -1.79650000      -0.76250000
H       -1.98110000      -0.79130000      -0.00350000
H        1.90820000      -1.90180000      -0.15340000
H        2.85800000      -0.53410000       0.50110000
H        1.75550000       1.15680000       2.01720000
H        0.33170000       0.68840000       2.97110000
H        1.83100000      -0.24350000       3.09730000
