19
Properties=species:S:1:pos:R:3 gdb_14470=T pbc="F F F"
C       -0.15790000       1.53670000      -0.05380000
C        0.06400000       0.06350000      -0.01020000
C        0.41070000      -0.96630000      -1.01770000
C        1.42910000      -1.63210000      -0.09930000
C        0.65990000      -0.95250000       1.07030000
C        1.32800000      -0.64230000       2.38290000
C       -0.71420000      -1.63840000       0.96460000
N       -0.95010000      -0.97410000      -0.35650000
H        0.79110000       2.08410000      -0.03580000
H       -0.69070000       1.80590000      -0.97120000
H       -0.75960000       1.87870000       0.79610000
H        0.40830000      -0.89700000      -2.09800000
H        1.50440000      -2.72570000      -0.08550000
H        2.42230000      -1.19590000      -0.24040000
H        2.23650000      -0.04640000       2.24170000
H        0.66140000      -0.08470000       3.05030000
H        1.61660000      -1.56560000       2.89980000
H       -0.74770000      -2.73540000       0.95570000
H       -1.44800000      -1.25460000       1.67980000
