19
Properties=species:S:1:pos:R:3 gdb_29781=T pbc="F F F"
C       -0.07830000       1.43500000       0.01220000
N       -0.01900000      -0.00830000       0.01820000
C       -0.03890000      -0.80370000      -1.09780000
C        0.03450000      -2.12010000      -0.68720000
N        0.05110000      -3.35540000      -1.40580000
C        0.10050000      -2.10100000       0.73190000
O        0.18280000      -3.21390000       1.51030000
C        0.06720000      -0.79390000       1.16290000
C        0.10930000      -0.23540000       2.54410000
H        0.81450000       1.87550000       0.47090000
H       -0.14110000       1.78310000      -1.02040000
H       -0.95720000       1.80310000       0.55410000
H       -0.10320000      -0.37060000      -2.08400000
H        0.84230000      -3.41830000      -2.03820000
H       -0.78710000      -3.48370000      -1.96340000
H        0.18290000      -3.95210000       0.88250000
H        0.97560000       0.41790000       2.71480000
H       -0.78770000       0.34540000       2.79780000
H        0.17680000      -1.06250000       3.25460000
