21
Properties=species:S:1:pos:R:3 gdb_63542=T pbc="F F F"
C       -0.11850000       1.51960000       0.00570000
C       -0.01860000       0.01160000       0.04770000
O       -1.16480000      -0.65810000      -0.41460000
C        1.31920000      -0.66670000      -0.18670000
C        0.67260000      -0.68620000       1.17680000
C        1.27520000      -0.11310000       2.47940000
C        0.79230000      -1.37810000       3.20760000
C       -0.69300000      -1.54410000       3.04700000
C        0.20450000      -1.93070000       1.90360000
H        0.76950000       1.99150000       0.43580000
H       -0.21410000       1.87580000      -1.02810000
H       -0.99680000       1.86280000       0.56220000
H       -1.23190000      -0.50620000      -1.36410000
H        1.30700000      -1.59330000      -0.75270000
H        2.20080000      -0.04960000      -0.33730000
H        2.36480000      -0.03580000       2.42890000
H        0.86960000       0.83640000       2.84660000
H        1.34780000      -1.90200000       3.97520000
H       -1.12780000      -2.37530000       3.59350000
H       -1.34310000      -0.67650000       2.96350000
H        0.23600000      -2.93760000       1.50630000
