20
Properties=species:S:1:pos:R:3 gdb_26319=T pbc="F F F"
C        0.52930000       1.53650000      -0.48380000
C        0.03670000       0.19260000       0.06620000
C        0.20540000      -0.93740000      -0.96620000
C        0.70710000      -0.16740000       1.35920000
C        1.71660000       0.43840000       2.02930000
O        1.97730000      -0.28390000       3.16590000
C        1.09300000      -1.31240000       3.12570000
C        1.12170000      -2.29230000       4.24270000
N        0.32050000      -1.29620000       2.08670000
H        1.59840000       1.49530000      -0.72190000
H       -0.00380000       1.79300000      -1.40400000
H        0.37250000       2.34720000       0.23480000
H       -1.03780000       0.28040000       0.27970000
H        1.25800000      -1.04840000      -1.25000000
H       -0.13740000      -1.88950000      -0.55460000
H       -0.37010000      -0.72110000      -1.87230000
H        2.31950000       1.31520000       1.87260000
H        2.09670000      -2.78630000       4.30910000
H        0.93620000      -1.80070000       5.20330000
H        0.35200000      -3.04520000       4.07270000
