16
Properties=species:S:1:pos:R:3 gdb_64913=T pbc="F F F"
C       -0.06290000       1.70610000       0.42790000
C       -0.10220000       0.22130000       0.13240000
C        1.11840000      -0.51350000      -0.37560000
C        0.69590000      -0.72340000       1.05510000
O        1.40030000      -0.07720000       2.07080000
C        0.13890000      -1.99890000       1.45980000
N       -0.24230000      -3.02120000       1.84200000
C       -1.42110000      -0.30220000      -0.35920000
O       -1.56820000      -1.35690000      -0.92260000
H        0.86880000       1.98610000       0.91880000
H       -0.15550000       2.28040000      -0.49980000
H       -0.88880000       1.99300000       1.08740000
H        0.92950000      -1.31810000      -1.07740000
H        2.02610000       0.06220000      -0.51690000
H        2.18470000      -0.60040000       2.27430000
H       -2.28170000       0.37330000      -0.16290000
