16
Properties=species:S:1:pos:R:3 gdb_103525=T pbc="F F F"
C       -0.03560000       1.53750000      -0.02570000
C       -0.02420000       0.00550000       0.00610000
C       -1.46130000      -0.56030000       0.00230000
O       -1.48110000      -1.96880000      -0.02770000
N        0.71960000      -0.56050000      -1.13120000
C        1.65770000      -1.24220000      -0.61990000
O        1.78440000      -1.28650000       0.74310000
C        0.73030000      -0.51020000       1.23580000
O        0.55060000      -0.33640000       2.39760000
H        0.98160000       1.93570000      -0.06050000
H       -0.57030000       1.88730000      -0.91230000
H       -0.52850000       1.92370000       0.87060000
H       -1.95850000      -0.25540000       0.92770000
H       -2.00000000      -0.12000000      -0.84870000
H       -1.11050000      -2.23930000      -0.87550000
H        2.40760000      -1.80990000      -1.15850000
