17
Properties=species:S:1:pos:R:3 gdb_96628=T pbc="F F F"
C       -0.08750000       1.29780000       0.18820000
N        0.00640000      -0.13970000       0.01850000
C        0.64310000      -0.58060000      -1.00170000
N        1.28380000       0.11000000      -1.97900000
C        0.76210000      -2.09040000      -1.20190000
O        1.31760000      -2.54790000      -2.17700000
N        0.17290000      -2.77950000      -0.17260000
C        0.05860000      -4.14930000       0.02070000
N        0.51720000      -5.02340000      -0.77500000
H        0.90430000       1.77280000       0.24470000
H       -0.63520000       1.77770000      -0.63910000
H       -0.62320000       1.52580000       1.11240000
H        1.12680000       1.09310000      -2.10850000
H        1.62470000      -0.44230000      -2.75230000
H       -0.23130000      -2.15150000       0.51620000
H       -0.48050000      -4.35760000       0.95350000
H        0.30850000      -5.95370000      -0.41540000
