18
Properties=species:S:1:pos:R:3 gdb_56306=T pbc="F F F"
N       -0.16790000       1.30340000      -0.09960000
C        0.06490000      -0.04160000      -0.03210000
O        1.15420000      -0.56460000      -0.01330000
O       -1.11450000      -0.71280000      -0.02460000
C       -0.99790000      -2.14220000      -0.01150000
C       -2.40710000      -2.71290000      -0.00330000
C       -2.39040000      -4.25430000       0.00980000
C       -3.72860000      -4.83150000       0.02030000
C       -4.84180000      -5.28420000       0.02900000
H        0.61650000       1.89950000       0.10040000
H       -1.08930000       1.64770000       0.11060000
H       -0.43380000      -2.46820000      -0.89230000
H       -0.42950000      -2.45260000       0.87240000
H       -2.94750000      -2.34430000       0.87450000
H       -2.95150000      -2.35900000      -0.88460000
H       -1.84090000      -4.62380000      -0.86600000
H       -1.83360000      -4.60900000       0.88730000
H       -5.82010000      -5.69620000       0.03640000
