11
Properties=species:S:1:pos:R:3 gdb_20625=T pbc="F F F"
C       -0.00340000       1.51440000       0.11610000
C        0.02250000       0.03340000      -0.00870000
C       -0.00610000      -0.78250000      -1.10400000
O        0.03750000      -2.06250000      -0.70070000
N        0.09560000      -2.02030000       0.71150000
N        0.08560000      -0.81640000       1.07620000
C       -0.06990000      -0.49170000      -2.48440000
N       -0.12220000      -0.21630000      -3.60740000
H        0.89380000       1.87310000       0.62950000
H       -0.05390000       1.98370000      -0.86830000
H       -0.86940000       1.83610000       0.70240000
