15
Properties=species:S:1:pos:R:3 gdb_133718=T pbc="F F F"
O        0.29280000       1.33140000      -0.23940000
C        0.11490000      -0.03250000       0.00960000
C        0.15930000      -0.50540000       1.49170000
N       -1.30790000      -0.71120000       1.45720000
C       -1.34530000      -0.60880000      -0.00710000
C       -2.47190000       0.26830000      -0.52510000
F       -2.47060000       1.49140000       0.04010000
F       -2.38140000       0.43300000      -1.85060000
F       -3.66570000      -0.28340000      -0.25980000
H       -0.38370000       1.82240000       0.24050000
H        0.80020000      -0.55270000      -0.66050000
H        0.75440000      -1.41700000       1.63310000
H        0.48850000       0.24900000       2.21450000
H       -1.65790000      -1.57470000       1.85250000
H       -1.41140000      -1.55770000      -0.55640000
