13
Properties=species:S:1:pos:R:3 gdb_127809=T pbc="F F F"
C        0.07810000       1.43460000      -0.06070000
N        0.00760000      -0.00600000       0.06990000
N       -0.13760000      -0.81060000      -1.02870000
N       -0.17560000      -2.04560000      -0.67150000
N       -0.05370000      -2.04300000       0.67500000
N       -0.01610000      -2.95950000       1.66840000
C        0.12540000      -2.14680000       2.72060000
N        0.18120000      -0.79620000       2.48680000
C        0.06260000      -0.78940000       1.17100000
H        1.03110000       1.80290000       0.32700000
H       -0.00530000       1.66770000      -1.12180000
H       -0.74170000       1.90420000       0.48860000
H        0.19250000      -2.55510000       3.71850000
