16
Properties=species:S:1:pos:R:3 gdb_12448=T pbc="F F F"
O        0.00930000      -0.01010000      -0.54950000
C       -0.02970000       1.08620000      -0.06050000
C       -1.35290000       1.83180000       0.11670000
C       -1.63920000       2.45920000       1.46040000
C       -0.87440000       3.41040000       1.98740000
C        0.38820000       3.87050000       1.30340000
C        1.41230000       2.74480000       1.16200000
O        1.14600000       1.71140000       0.20010000
H       -1.36430000       2.61310000      -0.65870000
H       -2.12270000       1.10890000      -0.15260000
H       -2.53030000       2.11810000       1.97820000
H       -1.13250000       3.85370000       2.94450000
H        0.17090000       4.29070000       0.31120000
H        0.86940000       4.66830000       1.87840000
H        2.37240000       3.15360000       0.83380000
H        1.56430000       2.26480000       2.13650000
