19
Properties=species:S:1:pos:R:3 gdb_53565=T pbc="F F F"
C       -0.05680000       1.43900000       0.20440000
C       -0.01400000      -0.01450000       0.28430000
C        0.03210000      -1.21560000       0.35500000
C        0.04880000      -2.67440000       0.42770000
C       -1.32320000      -3.27960000       0.11550000
C       -1.90840000      -3.36710000      -1.32150000
C       -0.93020000      -4.51090000      -1.68130000
C       -1.52920000      -4.77140000      -0.27770000
O       -2.85570000      -4.39200000      -0.81690000
H        0.46740000       1.80600000      -0.68500000
H       -1.08840000       1.80470000       0.15390000
H        0.41420000       1.90040000       1.07950000
H        0.81860000      -3.06750000      -0.24570000
H        0.34530000      -2.98970000       1.43740000
H       -2.07570000      -2.94160000       0.83140000
H       -2.31330000      -2.57480000      -1.95090000
H       -1.28980000      -5.18630000      -2.45800000
H        0.13520000      -4.29290000      -1.77830000
H       -1.47860000      -5.66620000       0.34410000
