17
Properties=species:S:1:pos:R:3 gdb_75144=T pbc="F F F"
C        0.07010000       1.47100000       0.10750000
C       -0.05290000      -0.05870000       0.00180000
C        0.80170000      -0.63280000      -1.19600000
N        2.02600000      -1.15050000      -0.59890000
C        1.83940000      -1.16770000       0.66630000
N        2.77550000      -1.54490000       1.60460000
N        0.58750000      -0.74660000       1.13730000
C       -1.46980000      -0.43990000      -0.10140000
N       -2.58760000      -0.71470000      -0.20440000
H        1.12890000       1.74460000       0.13060000
H       -0.39860000       1.95410000      -0.75420000
H       -0.41700000       1.84630000       1.01290000
H        0.25810000      -1.43340000      -1.71110000
H        1.00610000       0.15220000      -1.93180000
H        3.56400000      -2.01980000       1.18740000
H        2.40010000      -2.04190000       2.40040000
H        0.59160000      -0.23090000       2.00890000
