17
Properties=species:S:1:pos:R:3 gdb_125940=T pbc="F F F"
C       -0.75210000       1.24680000      -0.02290000
C        0.19970000       0.05470000       0.01370000
C        1.19400000      -0.00170000      -1.19940000
C        2.36310000      -0.71790000      -0.60080000
N        3.43160000      -1.33990000      -0.99370000
O        4.04450000      -1.74310000       0.18110000
N        3.32490000      -1.35470000       1.29890000
C        2.29710000      -0.72710000       0.81660000
C        1.07700000      -0.01790000       1.31320000
H       -0.19830000       2.19210000       0.00910000
H       -1.35620000       1.24330000      -0.93580000
H       -1.43840000       1.23190000       0.82990000
H       -0.39010000      -0.86930000      -0.01970000
H        0.76310000      -0.49920000      -2.07120000
H        1.48520000       1.00960000      -1.51110000
H        1.33740000       0.98910000       1.66360000
H        0.56730000      -0.52640000       2.13460000
