15
Properties=species:S:1:pos:R:3 gdb_67678=T pbc="F F F"
O        0.13240000       1.37350000      -0.17350000
C        0.13560000       0.01840000      -0.07210000
C       -0.26760000      -0.86070000      -1.22390000
C        0.56160000      -2.11810000      -1.47840000
O        0.48910000      -2.86910000      -0.26340000
C       -0.08090000      -2.02650000       0.72990000
C       -1.05480000      -1.06880000       0.02900000
C        0.76760000      -0.75720000       1.02530000
O        1.39830000      -0.36600000       1.97610000
H        0.35830000       1.71980000       0.70130000
H       -0.71900000      -0.32880000      -2.05410000
H        0.13970000      -2.72210000      -2.29020000
H        1.60510000      -1.88060000      -1.71980000
H       -0.39750000      -2.62150000       1.58360000
H       -2.10750000      -0.90280000       0.20050000
