14
Properties=species:S:1:pos:R:3 gdb_5038=T pbc="F F F"
C       -0.01050000       1.45840000       0.00830000
N        0.00640000       0.00000000      -0.02880000
C       -0.10030000      -0.69670000      -1.19510000
C       -0.08100000      -2.05680000      -1.19350000
N        0.04480000      -2.77240000      -0.03550000
C        0.14700000      -2.11410000       1.07970000
C        0.13930000      -0.65820000       1.20880000
O        0.23430000      -0.02590000       2.24870000
H        0.91500000       1.82840000       0.45570000
H       -0.11740000       1.84200000      -1.00660000
H       -0.83930000       1.80360000       0.63100000
H       -0.19910000      -0.11060000      -2.10130000
H       -0.16540000      -2.61460000      -2.11740000
H        0.24780000      -2.66660000       2.01090000
