13
Properties=species:S:1:pos:R:3 gdb_128451=T pbc="F F F"
C        0.01720000       1.35260000       0.00960000
O       -0.04020000      -0.08320000       0.00250000
C       -1.26750000      -0.60400000       0.00940000
O       -2.29760000       0.02470000       0.02140000
C       -1.25190000      -2.08770000       0.00270000
N       -0.17680000      -2.83470000      -0.00910000
O       -0.62230000      -4.11440000      -0.01130000
N       -1.99590000      -4.17640000      -0.00060000
C       -2.39350000      -2.93710000       0.00800000
H        1.07740000       1.60140000       0.00310000
H       -0.48070000       1.75820000      -0.87430000
H       -0.46760000       1.74900000       0.90470000
H       -3.43760000      -2.66960000       0.01750000
