22
Properties=species:S:1:pos:R:3 gdb_85910=T pbc="F F F"
C        0.25530000       1.58110000      -0.08390000
C        0.05360000       0.07980000       0.05870000
O        0.61170000      -0.56300000      -1.08960000
C        1.13620000      -1.86410000      -0.76170000
C        0.07270000      -2.93950000      -1.02280000
C        2.37960000      -2.07060000      -1.62280000
C        1.43340000      -1.77320000       0.73230000
N        2.22290000      -0.57670000       1.08690000
C        0.75230000      -0.56780000       1.24250000
H        1.32330000       1.81100000      -0.07480000
H       -0.17400000       1.93280000      -1.02590000
H       -0.23380000       2.11540000       0.73740000
H       -1.02410000      -0.14620000       0.13470000
H       -0.23460000      -2.91080000      -2.07180000
H        0.45940000      -3.94100000      -0.80480000
H       -0.81400000      -2.77580000      -0.40220000
H        3.12470000      -1.31120000      -1.37820000
H        2.81050000      -3.06270000      -1.45220000
H        2.12340000      -1.98570000      -2.68280000
H        1.53610000      -2.68300000       1.31510000
H        2.65210000      -0.72060000       1.99780000
H        0.31090000      -0.51150000       2.23220000
