15
Properties=species:S:1:pos:R:3 gdb_68103=T pbc="F F F"
C        0.05380000       1.49130000       0.06540000
C       -0.01780000       0.00170000      -0.03290000
C        0.54320000      -0.96540000      -1.13470000
C        0.00700000      -1.90430000      -0.00910000
N        0.55210000      -0.94060000       1.04440000
C        0.11450000      -3.32950000       0.09520000
N        0.18470000      -4.48180000       0.16070000
C       -1.23460000      -0.94660000       0.00200000
O       -2.41530000      -0.96200000      -0.00920000
H        1.08790000       1.84530000       0.00870000
H       -0.50970000       1.95270000      -0.75110000
H       -0.37580000       1.82720000       1.01320000
H        0.06850000      -0.99750000      -2.11950000
H        1.63450000      -0.95910000      -1.20170000
H        1.57390000      -0.93500000       0.94520000
