18
Properties=species:S:1:pos:R:3 gdb_56729=T pbc="F F F"
C        0.44160000       1.65490000      -0.14270000
C        0.09440000       0.15500000       0.01260000
C        0.45530000      -0.57670000      -1.19940000
C        0.79230000      -1.15410000      -2.19950000
C        0.75570000      -0.44110000       1.26170000
C        1.19650000      -1.87440000       1.31140000
N        2.18940000      -0.80460000       1.27480000
C        0.28560000       0.10850000       2.56920000
O       -0.70830000       0.77630000       2.71440000
H        1.52110000       1.79270000      -0.25330000
H       -0.04590000       2.06340000      -1.03080000
H        0.09880000       2.20960000       0.73200000
H       -0.98910000       0.07730000       0.16680000
H        1.06170000      -1.66350000      -3.09200000
H        1.14190000      -2.42230000       2.24830000
H        1.01830000      -2.45990000       0.41510000
H        2.54960000      -0.71490000       0.32550000
H        0.93750000      -0.17800000       3.42310000
