18
Properties=species:S:1:pos:R:3 gdb_79794=T pbc="F F F"
O        0.03200000       1.48010000      -0.07320000
C        0.02610000       0.07560000       0.02600000
C        0.15360000      -0.59920000       1.41770000
C       -0.91340000       0.05940000       2.30330000
C       -1.50810000      -1.12180000       3.09930000
N       -2.05000000      -1.64110000       1.79870000
C       -2.08180000      -0.19890000       1.28170000
C       -1.35250000      -0.57770000      -0.03100000
C       -0.84770000      -1.72430000       0.89520000
H        0.93890000       1.78990000       0.01630000
H        0.70530000      -0.38910000      -0.70360000
H        1.12150000      -0.82940000       1.86270000
H       -0.69360000       1.03470000       2.73570000
H       -0.83040000      -1.79580000       3.63500000
H       -2.33990000      -0.83830000       3.75080000
H       -3.01600000       0.35640000       1.34110000
H       -1.92440000      -0.71270000      -0.94610000
H       -0.48590000      -2.70120000       0.58310000
