17
Properties=species:S:1:pos:R:3 gdb_67673=T pbc="F F F"
C       -0.04090000       1.52380000       0.01760000
C       -0.02210000       0.02540000      -0.04890000
C       -0.90690000      -0.87520000       0.81770000
C       -1.50450000      -2.13150000       0.18890000
O       -0.38470000      -2.90510000      -0.25050000
C        0.73970000      -2.03970000      -0.24480000
C        0.56150000      -1.05330000       0.93350000
C        0.55520000      -0.79280000      -1.16250000
O        0.96640000      -0.49590000      -2.25130000
H        0.90400000       1.93860000      -0.34590000
H       -0.84280000       1.92940000      -0.60830000
H       -0.20450000       1.87710000       1.04040000
H       -1.45510000      -0.35910000       1.59810000
H       -2.06930000      -2.72170000       0.91950000
H       -2.16370000      -1.89690000      -0.65720000
H        1.65240000      -2.62140000      -0.36130000
H        1.19350000      -0.90000000       1.79620000
