21
Properties=species:S:1:pos:R:3 gdb_105272=T pbc="F F F"
O       -0.27470000       1.73210000       0.80530000
C       -0.10590000       0.33110000       0.79640000
C       -1.28060000      -0.46430000       0.21110000
C       -2.65100000       0.18680000       0.25900000
C       -1.92090000       0.03720000      -1.05210000
O       -1.33260000       1.15830000      -1.67870000
C       -1.13750000      -1.93900000       0.46680000
C       -1.72610000      -3.01780000      -0.40680000
C       -0.23450000      -2.80140000      -0.38570000
H       -0.42320000       1.97980000      -0.11740000
H        0.81170000       0.03860000       0.26070000
H        0.02690000       0.02970000       1.84260000
H       -3.52270000      -0.43590000       0.43000000
H       -2.68250000       1.18060000       0.69240000
H       -2.30780000      -0.68910000      -1.76400000
H       -2.04350000       1.70660000      -2.02850000
H       -1.12920000      -2.17530000       1.52920000
H       -2.12650000      -3.89650000       0.08680000
H       -2.26510000      -2.73930000      -1.30540000
H        0.21170000      -2.33900000      -1.25990000
H        0.39440000      -3.53950000       0.09940000
