19
Properties=species:S:1:pos:R:3 gdb_110548=T pbc="F F F"
C       -0.07180000       1.38760000      -0.02410000
O        0.12480000      -0.00670000       0.07580000
C        0.68770000      -0.58170000      -1.07980000
C        1.06510000      -2.03560000      -0.85710000
C       -0.17230000      -2.87230000      -1.19940000
C       -1.26950000      -1.89500000      -1.60720000
C       -0.31420000      -0.86620000      -2.24310000
O        0.48970000      -1.65200000      -3.13460000
C        0.91490000      -2.65600000      -2.22290000
H        0.86980000       1.91260000      -0.24700000
H       -0.80530000       1.65500000      -0.79920000
H       -0.44670000       1.73050000       0.94320000
H        1.53700000       0.01860000      -1.43960000
H        1.81120000      -2.34280000      -0.13800000
H       -0.36390000      -3.83300000      -0.74190000
H       -1.96630000      -2.31360000      -2.33820000
H       -1.81460000      -1.47950000      -0.75780000
H       -0.73950000      -0.01960000      -2.77700000
H        1.55460000      -3.41420000      -2.65090000
