15
Properties=species:S:1:pos:R:3 gdb_131213=T pbc="F F F"
O       -0.30260000       1.27380000       0.26300000
C       -0.05990000      -0.02660000      -0.00300000
C       -0.07920000      -0.79610000      -1.14700000
C        0.28170000      -2.09160000      -0.69410000
N        0.51480000      -2.11580000       0.61450000
N        0.29070000      -0.84070000       1.01670000
C        0.38740000      -3.31680000      -1.51800000
C        0.74590000      -4.61770000      -0.94130000
O       -0.60280000      -4.34330000      -1.31360000
H       -0.55640000       1.71540000      -0.55330000
H       -0.32660000      -0.48270000      -2.14820000
H        0.40930000      -0.58510000       1.98240000
H        0.60950000      -3.13810000      -2.56980000
H        1.26650000      -5.34980000      -1.55790000
H        0.93110000      -4.67720000       0.12850000
