17
Properties=species:S:1:pos:R:3 gdb_2362=T pbc="F F F"
C        0.01700000       1.54400000       0.04200000
C        0.01300000       0.01340000       0.07430000
O        0.60230000      -0.48200000       1.26780000
C       -1.39880000      -0.54870000      -0.07440000
C       -1.59000000      -2.07490000       0.05570000
C       -2.51910000      -1.71730000       1.23020000
O       -2.16180000      -0.31680000       1.14400000
H        1.02650000       1.91920000       0.22740000
H       -0.32420000       1.92200000      -0.92780000
H       -0.64910000       1.94200000       0.81500000
H        0.62610000      -0.37690000      -0.74850000
H       -0.04390000      -0.29540000       1.96220000
H       -1.90270000      -0.10220000      -0.94240000
H       -2.04890000      -2.58220000      -0.79340000
H       -0.67700000      -2.59030000       0.35530000
H       -3.58860000      -1.86730000       1.03730000
H       -2.26930000      -2.14260000       2.20830000
