16
Properties=species:S:1:pos:R:3 gdb_127829=T pbc="F F F"
C       -0.04270000       1.42280000      -0.01350000
N       -0.04620000      -0.02670000      -0.02290000
C        0.57820000      -0.62280000       0.92300000
N        1.28780000      -0.03800000       1.94960000
C        0.59510000      -2.09430000       0.92070000
N        1.16140000      -2.80880000       1.89910000
N        0.95270000      -4.06060000       1.52010000
N        0.29860000      -4.23380000       0.37650000
C        0.05950000      -2.98850000      -0.02600000
H        0.97640000       1.84100000      -0.03210000
H       -0.57350000       1.79460000      -0.89330000
H       -0.55010000       1.84060000       0.87300000
H        1.07350000       0.91610000       2.18670000
H        1.54590000      -0.63600000       2.71890000
H        1.27480000      -4.84130000       2.06890000
H       -0.46640000      -2.77270000      -0.94000000
