13
Properties=species:S:1:pos:R:3 gdb_129500=T pbc="F F F"
N       -0.04290000       1.28450000       0.02350000
C        0.05820000      -0.05260000      -0.02200000
O        1.09710000      -0.70230000      -0.07130000
N       -1.17510000      -0.71860000      -0.00860000
N       -2.40470000      -0.09440000       0.04560000
C       -3.21890000      -1.12630000       0.03590000
N       -2.64040000      -2.36600000      -0.01970000
C       -1.36150000      -2.08280000      -0.04680000
O       -0.35730000      -2.93030000      -0.10210000
H        0.79900000       1.83280000       0.01710000
H       -0.95370000       1.71390000       0.06210000
H       -4.29040000      -0.99320000       0.07030000
H        0.46470000      -2.38430000      -0.10820000
