13
Properties=species:S:1:pos:R:3 gdb_25047=T pbc="F F F"
N       -0.04350000       1.23090000       0.53870000
C       -0.01930000       0.07030000       0.03450000
O        1.16430000      -0.53260000      -0.37670000
C        1.13340000      -1.77240000      -0.90800000
C       -0.01370000      -2.47140000      -1.06370000
N       -1.24190000      -1.92060000      -0.66940000
C       -1.22250000      -0.74170000      -0.16280000
C       -0.00940000      -3.77580000      -1.62750000
C       -0.00100000      -4.88020000      -2.10540000
H        0.89210000       1.63500000       0.59400000
H        2.11600000      -2.12930000      -1.18730000
H       -2.15490000      -0.28160000       0.15460000
H       -0.00030000      -5.85510000      -2.52640000
