16
Properties=species:S:1:pos:R:3 gdb_105443=T pbc="F F F"
O        0.03560000       1.36300000       0.09040000
C       -0.05480000      -0.03800000       0.06120000
C       -1.49840000      -0.53900000      -0.11600000
C       -1.62240000      -2.08440000       0.09890000
N       -2.34930000      -2.24390000       1.36470000
C       -2.63730000      -1.07620000       1.75510000
O       -2.25750000       0.00260000       1.02410000
C       -2.10400000      -0.06750000      -1.35210000
C       -2.58670000       0.27510000      -2.39720000
H       -0.56930000       1.66880000       0.77640000
H        0.55030000      -0.38550000      -0.78200000
H        0.34160000      -0.49900000       0.98070000
H       -2.17040000      -2.56610000      -0.71460000
H       -0.63620000      -2.55690000       0.16670000
H       -3.18780000      -0.83050000       2.65650000
H       -3.01300000       0.59330000      -3.31680000
