18
Properties=species:S:1:pos:R:3 gdb_33995=T pbc="F F F"
C        0.00720000      -1.20500000       0.48080000
C        0.02700000      -0.03160000       0.21910000
C        0.03710000       1.36330000      -0.14770000
C       -0.98070000       1.74020000      -1.22230000
C       -0.74850000       3.09150000      -1.84000000
C        0.39860000       3.76400000      -1.75990000
C        1.61260000       3.25840000      -1.02960000
C        1.31130000       2.14520000      -0.04530000
N        0.27040000       2.31070000       0.97510000
H       -0.00420000      -2.23720000       0.72920000
H       -0.95940000       0.96840000      -2.00390000
H       -1.99020000       1.68640000      -0.79260000
H       -1.58220000       3.51390000      -2.39500000
H        0.49050000       4.73030000      -2.24870000
H        2.35740000       2.89740000      -1.75390000
H        2.10430000       4.08590000      -0.49860000
H        2.18580000       1.61530000       0.32450000
H       -0.25330000       3.16370000       0.77890000
