17
Properties=species:S:1:pos:R:3 gdb_18674=T pbc="F F F"
O        0.03230000      -0.00230000      -0.41570000
C        0.00810000       1.17050000      -0.11460000
C       -1.26790000       1.95090000       0.14220000
C       -1.30110000       3.18260000      -0.78840000
C       -0.14510000       4.16120000      -0.51280000
C        1.18720000       3.47180000      -0.23700000
N        1.34800000       2.91860000       1.10650000
C        1.26440000       1.98370000      -0.04410000
H       -2.11790000       1.28790000      -0.03230000
H       -1.28040000       2.27770000       1.18850000
H       -1.24450000       2.83460000      -1.82740000
H       -2.25990000       3.70100000      -0.68750000
H       -0.03150000       4.83760000      -1.36650000
H       -0.38330000       4.78440000       0.35670000
H        2.06330000       3.92970000      -0.69130000
H        2.31570000       2.98100000       1.41170000
H        2.16020000       1.45310000      -0.35320000
