21
Properties=species:S:1:pos:R:3 gdb_87520=T pbc="F F F"
C       -0.07200000       1.55910000      -0.08560000
C       -0.01290000       0.04750000      -0.01780000
C        1.31640000      -0.67760000      -0.19720000
C        0.63530000      -0.65610000       1.12810000
C        1.19720000      -0.20260000       2.47920000
C       -0.07070000       0.06250000       3.32240000
C       -0.83930000      -1.24760000       2.94350000
C        0.23690000      -1.84220000       2.00840000
O        1.46170000      -1.61190000       2.77840000
H        0.81510000       2.00930000       0.37250000
H       -0.12000000       1.90670000      -1.12330000
H       -0.95090000       1.95250000       0.43740000
H       -0.87520000      -0.45600000      -0.45150000
H        1.32920000      -1.60360000      -0.76370000
H        2.20640000      -0.06790000      -0.32600000
H        2.06370000       0.44940000       2.59060000
H        0.16480000       0.12010000       4.38710000
H       -0.59440000       0.97530000       3.02700000
H       -1.02230000      -1.89420000       3.80410000
H       -1.78850000      -1.06270000       2.43330000
H        0.12430000      -2.86060000       1.63540000
