19
Properties=species:S:1:pos:R:3 gdb_66996=T pbc="F F F"
C        0.02430000       1.46810000      -0.02890000
C       -0.00730000      -0.03850000       0.03030000
C       -0.36280000      -0.79070000      -1.27160000
C       -0.08630000      -2.28820000      -1.19020000
C       -0.74920000      -2.28170000       0.22680000
C        0.32020000      -2.10740000       1.30570000
C        0.91850000      -0.72950000       0.99040000
O        1.91570000      -0.25150000       1.47480000
C       -1.28380000      -0.84310000      -0.08050000
H        1.02870000       1.81480000      -0.28930000
H       -0.67900000       1.85360000      -0.77310000
H       -0.23200000       1.90610000       0.94100000
H       -0.45370000      -0.20000000      -2.17630000
H       -0.69410000      -2.83470000      -1.91610000
H        0.95060000      -2.63670000      -1.25670000
H       -1.48020000      -3.06410000       0.42300000
H       -0.12340000      -2.05830000       2.30860000
H        1.08850000      -2.88530000       1.31860000
H       -2.27760000      -0.44230000       0.07180000
