17
Properties=species:S:1:pos:R:3 gdb_71607=T pbc="F F F"
C        0.01480000       1.45750000      -0.16680000
C       -0.02250000      -0.02490000       0.00530000
O        0.52060000      -0.89340000      -1.06310000
C        0.04120000      -1.84940000      -0.05510000
C        0.57100000      -0.96010000       1.09630000
O       -0.27790000      -1.01940000       2.22160000
C       -1.59770000      -1.05810000       1.63760000
C       -1.25490000      -0.99930000       0.16100000
O       -2.29740000      -0.99800000      -0.73600000
H        1.03150000       1.79760000      -0.38570000
H       -0.64200000       1.77210000      -0.98440000
H       -0.32240000       1.94650000       0.75260000
H        0.16510000      -2.91320000      -0.25480000
H        1.62390000      -0.93540000       1.36540000
H       -2.11330000      -1.98130000       1.92490000
H       -2.18920000      -0.19960000       1.97540000
H       -1.89340000      -0.97270000      -1.61500000
