16
Properties=species:S:1:pos:R:3 gdb_62153=T pbc="F F F"
O        1.15300000       1.61680000       0.54920000
C        0.46090000       0.57830000      -0.10870000
C        1.18980000       0.21090000      -1.40740000
O        0.47730000      -0.80110000      -2.11890000
C       -0.09130000      -0.47560000      -3.30330000
O       -0.73120000      -1.25230000      -3.94020000
C        0.25060000      -0.66390000       0.78080000
C       -0.48480000      -0.35810000       2.00430000
N       -1.06790000      -0.11750000       2.97180000
H        1.97350000       1.26670000       0.91530000
H       -0.51930000       0.99580000      -0.36330000
H        1.30770000       1.11460000      -2.01600000
H        2.18770000      -0.18690000      -1.18640000
H        0.11320000       0.57150000      -3.59930000
H       -0.28570000      -1.42960000       0.21140000
H        1.22450000      -1.09500000       1.04960000
