15
Properties=species:S:1:pos:R:3 gdb_112388=T pbc="F F F"
C       -0.12110000       1.38230000       0.06280000
O       -0.01940000      -0.03780000       0.05360000
C        0.67450000      -0.56120000       1.11740000
O       -0.07430000      -0.48630000       2.34820000
C       -0.43260000      -1.73650000       2.76410000
N       -1.13640000      -2.04250000       3.76120000
N        0.14470000      -2.65760000       1.89720000
C        0.86290000      -2.07470000       0.88350000
O        1.48810000      -2.60750000       0.00690000
H        0.87440000       1.84560000       0.10260000
H       -0.61350000       1.66460000      -0.86860000
H       -0.71690000       1.73270000       0.91290000
H        1.62760000      -0.04110000       1.28620000
H       -1.45010000      -1.20680000       4.25030000
H        0.02920000      -3.65080000       2.02130000
