16
Properties=species:S:1:pos:R:3 gdb_123761=T pbc="F F F"
C        0.07710000       1.39380000      -0.28300000
C        1.51390000       1.50740000       0.25950000
C        1.28940000       0.04430000       0.73590000
O        0.01400000      -0.01070000       0.05610000
C        2.21800000      -1.01840000       0.26320000
C        2.06500000      -1.83930000      -0.81020000
O        3.11150000      -2.67010000      -0.92540000
N        4.01190000      -2.40840000       0.10060000
C        3.47170000      -1.43840000       0.79550000
H       -0.67240000       1.97570000       0.26750000
H       -0.06130000       1.55990000      -1.35660000
H        2.28170000       1.60140000      -0.50920000
H        1.68520000       2.24640000       1.04290000
H        1.15500000      -0.02620000       1.82510000
H        1.27880000      -1.94740000      -1.53910000
H        3.99780000      -1.06190000       1.66210000
