19
Properties=species:S:1:pos:R:3 gdb_81850=T pbc="F F F"
C       -0.02320000       1.54400000       0.09880000
C       -0.09990000       0.05610000       0.00890000
C       -0.16650000      -0.71320000      -1.08200000
C       -0.11900000      -2.17000000      -0.72580000
C       -0.70310000      -3.22880000      -1.61530000
O        1.13260000      -2.52480000      -0.04990000
C       -0.03220000      -2.22910000       0.73640000
C        0.00990000      -0.79830000       1.27730000
O        1.20030000      -0.52830000       2.00270000
H        0.87560000       1.83980000       0.65130000
H       -0.00270000       2.01380000      -0.88780000
H       -0.87760000       1.94920000       0.65640000
H       -0.21090000      -0.35960000      -2.10650000
H       -0.19400000      -3.24290000      -2.58520000
H       -0.59660000      -4.21610000      -1.16000000
H       -1.76540000      -3.03540000      -1.79760000
H       -0.41470000      -3.04800000       1.34000000
H       -0.81660000      -0.60400000       1.97150000
H        1.91160000      -0.90370000       1.46540000
