16
Properties=species:S:1:pos:R:3 gdb_44705=T pbc="F F F"
O       -0.00530000      -0.01820000      -0.38720000
C       -0.05120000       1.14390000      -0.11450000
C       -1.18600000       2.12420000       0.23330000
C       -0.09030000       3.13150000       0.70410000
N        0.20740000       3.10250000       2.11410000
C        1.37740000       2.48600000       2.49390000
O        1.78540000       2.39060000       3.62740000
C        2.05470000       1.95720000       1.21950000
C        1.03860000       2.21810000       0.10770000
H       -1.71790000       2.45540000      -0.66530000
H       -1.91420000       1.78840000       0.97530000
H       -0.18290000       4.14810000       0.31430000
H       -0.37980000       3.52810000       2.81440000
H        2.99690000       2.49260000       1.07140000
H        2.29480000       0.89810000       1.34070000
H        1.47070000       2.56540000      -0.83290000
