24
Properties=species:S:1:pos:R:3 gdb_100974=T pbc="F F F"
C       -0.13610000       1.60700000      -0.16380000
C       -0.16340000       0.07710000      -0.21410000
C        0.93730000      -0.50690000      -1.10920000
O        2.24450000      -0.15770000      -0.65060000
C        0.80930000      -2.01790000      -1.30350000
C        0.97040000      -2.85810000      -0.04990000
N       -0.23610000      -2.40250000      -2.27310000
C        1.18340000      -2.64860000      -2.60240000
C        1.76700000      -1.93540000      -3.79880000
H        0.84220000       1.96680000       0.16710000
H       -0.32780000       2.03450000      -1.15400000
H       -0.89580000       1.99580000       0.52100000
H       -0.05850000      -0.32650000       0.80320000
H       -1.12980000      -0.27650000      -0.59090000
H        0.85290000      -0.03420000      -2.09140000
H        2.30080000      -0.38680000       0.28310000
H        0.17950000      -2.65470000       0.68040000
H        0.93540000      -3.92550000      -0.28970000
H        1.93450000      -2.66700000       0.43480000
H       -0.69340000      -3.26300000      -1.98120000
H        1.52300000      -3.68080000      -2.50950000
H        1.32250000      -0.94860000      -3.93930000
H        2.84980000      -1.81580000      -3.68850000
H        1.57940000      -2.51260000      -4.71080000
