19
Properties=species:S:1:pos:R:3 gdb_119919=T pbc="F F F"
C       -0.15810000       1.47090000      -0.04020000
C        0.06590000      -0.00910000       0.17060000
C        1.40090000      -0.66270000      -0.09550000
C        2.52000000       0.15940000      -0.48580000
N        3.42970000       0.80680000      -0.78950000
N        0.85410000      -0.56860000       1.26220000
C        1.49840000       0.28350000       2.26760000
C        0.65350000       0.22050000       3.54020000
O        0.51300000      -1.10400000       4.00440000
H        0.76200000       2.05400000       0.02770000
H       -0.57990000       1.63350000      -1.03660000
H       -0.87350000       1.85930000       0.69200000
H       -0.79920000      -0.62470000      -0.07190000
H        1.43740000      -1.66790000      -0.50820000
H        2.48680000      -0.14150000       2.46930000
H        1.63840000       1.32400000       1.94800000
H        1.14200000       0.79630000       4.33330000
H       -0.32790000       0.68870000       3.35010000
H        0.31120000      -1.63150000       3.22080000
