22
Properties=species:S:1:pos:R:3 gdb_60478=T pbc="F F F"
C       -0.19020000       1.46630000      -0.00880000
C        0.02690000      -0.04960000      -0.02310000
C        0.91740000      -0.49070000      -1.17910000
O        0.66350000      -0.50910000       1.16770000
C       -0.14460000      -0.53290000       2.31880000
C        0.64160000      -1.23080000       3.42360000
C       -0.16080000      -1.29050000       4.73670000
C        0.57340000      -1.95030000       5.81380000
N        1.16390000      -2.47390000       6.65770000
H        0.76810000       1.98380000       0.10310000
H       -0.65210000       1.79270000      -0.94590000
H       -0.84710000       1.77860000       0.80810000
H       -0.95310000      -0.54950000      -0.11180000
H        1.90040000      -0.01530000      -1.10280000
H        1.05930000      -1.57430000      -1.15970000
H        0.47180000      -0.21190000      -2.13840000
H       -0.42110000       0.48400000       2.64380000
H       -1.08720000      -1.07350000       2.12000000
H        0.90120000      -2.24260000       3.09840000
H        1.58190000      -0.69600000       3.58730000
H       -0.42590000      -0.27980000       5.06960000
H       -1.10500000      -1.82730000       4.58480000
