16
Properties=species:S:1:pos:R:3 gdb_71272=T pbc="F F F"
C       -0.04620000       1.50230000      -0.02270000
C       -0.09410000       0.00950000       0.08570000
O        0.32680000      -0.68610000      -1.15730000
C       -0.76170000      -1.58150000      -1.01060000
C       -0.79000000      -2.12720000       0.40840000
O        0.38560000      -1.98290000       1.18630000
C        0.76350000      -0.66210000       1.14220000
N        1.68980000      -0.13080000       1.80960000
C       -1.41780000      -0.80130000       0.10530000
H        0.99090000       1.82790000      -0.13460000
H       -0.62930000       1.84160000      -0.88190000
H       -0.44630000       1.95770000       0.88780000
H       -1.13610000      -2.09060000      -1.89100000
H       -1.36540000      -3.00700000       0.66280000
H        2.15050000      -0.81660000       2.41030000
H       -2.42230000      -0.46000000       0.31450000
