17
Properties=species:S:1:pos:R:3 gdb_18411=T pbc="F F F"
C        0.00330000       1.39960000       0.12290000
O        1.26270000       1.99900000      -0.03190000
C        2.15710000       1.78580000       1.05250000
C        2.85120000       0.43700000       0.96700000
N        2.80680000      -0.41750000       2.16800000
C        2.04350000      -0.80780000       0.96820000
C        0.52900000      -0.72350000       1.05490000
O       -0.03110000       0.00500000      -0.03000000
H       -0.41330000       1.67090000       1.11130000
H       -0.62150000       1.80420000      -0.67650000
H        2.88870000       2.59860000       1.00800000
H        1.62840000       1.85920000       2.01360000
H        3.75870000       0.41820000       0.36760000
H        3.65720000      -0.96910000       2.24340000
H        2.42990000      -1.62970000       0.36950000
H        0.08490000      -1.72270000       1.01210000
H        0.24740000      -0.26920000       2.01560000
