20
Properties=species:S:1:pos:R:3 gdb_122722=T pbc="F F F"
O       -0.28320000       1.49530000       0.10460000
C       -0.02950000       0.12330000      -0.10420000
C       -1.31590000      -0.68430000      -0.16550000
O       -2.05590000      -0.18070000      -1.28530000
C       -3.35330000      -0.53350000      -1.36500000
N       -4.05670000      -0.17100000      -2.34220000
C       -5.46010000      -0.54760000      -2.36270000
C       -6.29460000       0.70710000      -2.63970000
O       -5.89400000       1.33110000      -3.83960000
H       -0.85740000       1.78100000      -0.61530000
H        0.54740000      -0.05100000      -1.02550000
H        0.57330000      -0.22620000       0.74020000
H       -1.10350000      -1.75300000      -0.30200000
H       -1.89270000      -0.54490000       0.75720000
H       -3.71440000      -1.14250000      -0.52290000
H       -5.61490000      -1.25260000      -3.18920000
H       -5.79400000      -1.03270000      -1.43010000
H       -7.35100000       0.43770000      -2.74710000
H       -6.20910000       1.39120000      -1.77830000
H       -4.92820000       1.34390000      -3.81180000
