19
Properties=species:S:1:pos:R:3 gdb_113112=T pbc="F F F"
O        0.33460000       0.90060000      -0.91250000
C        0.06210000      -0.32270000      -0.24890000
C       -1.34130000      -0.23380000       0.32690000
C       -2.46950000      -0.22970000      -0.74660000
C       -2.69530000      -1.73070000      -0.46260000
C       -1.89370000      -1.59290000       0.85140000
O       -4.05490000      -2.13030000      -0.31110000
C       -4.50550000      -3.18290000      -1.01760000
O       -5.62840000      -3.58190000      -0.94320000
H        1.22110000       0.85630000      -1.28260000
H        0.13380000      -1.17680000      -0.94430000
H        0.78040000      -0.50860000       0.56620000
H       -1.37640000       0.59520000       1.03680000
H       -3.33820000       0.35120000      -0.42870000
H       -2.19220000       0.06260000      -1.76100000
H       -2.20460000      -2.38290000      -1.19370000
H       -1.17490000      -2.38230000       1.08850000
H       -2.57070000      -1.46160000       1.69830000
H       -3.72530000      -3.62870000      -1.66650000
