18
Properties=species:S:1:pos:R:3 gdb_95463=T pbc="F F F"
O        0.08210000       1.07660000       0.85710000
C        0.10530000      -0.19390000       0.21560000
C       -1.26750000      -0.91020000       0.15040000
C       -1.33320000      -1.57880000      -1.24500000
C       -0.25050000      -0.87110000      -2.02230000
C        0.53460000      -0.13300000      -1.23950000
C        1.74570000       0.68190000      -1.61010000
C        1.98380000       0.76720000      -3.04840000
N        2.16010000       0.82450000      -4.18880000
H       -0.60050000       1.60510000       0.42720000
H        0.83280000      -0.76790000       0.80530000
H       -1.41460000      -1.61130000       0.97470000
H       -2.05010000      -0.14740000       0.23750000
H       -1.12190000      -2.65490000      -1.18700000
H       -2.31880000      -1.48870000      -1.71510000
H       -0.11980000      -0.99300000      -3.09210000
H        1.64650000       1.69370000      -1.19820000
H        2.64230000       0.26320000      -1.13110000
