23
Properties=species:S:1:pos:R:3 gdb_53502=T pbc="F F F"
C        0.09600000       1.52700000       0.04640000
C        0.05020000       0.07180000       0.00210000
C        0.02780000      -1.13230000      -0.03260000
C       -0.01860000      -2.58990000      -0.06380000
C       -1.45280000      -3.17560000      -0.09350000
C       -2.21630000      -2.70880000      -1.33930000
C       -1.37610000      -4.71470000       0.03200000
C       -2.73440000      -5.38860000       0.22920000
O       -0.66260000      -5.30060000      -1.05710000
H        0.87300000       1.88020000       0.73370000
H        0.31140000       1.95190000      -0.94050000
H       -0.85770000       1.94750000       0.38510000
H        0.52860000      -2.97040000      -0.93500000
H        0.50720000      -2.98690000       0.81500000
H       -1.98100000      -2.80600000       0.79530000
H       -3.25960000      -3.03760000      -1.32880000
H       -2.20900000      -1.61780000      -1.39970000
H       -1.74630000      -3.08670000      -2.25530000
H       -0.75380000      -4.94090000       0.90740000
H       -3.38750000      -5.24150000      -0.63880000
H       -2.59920000      -6.46460000       0.36900000
H       -3.25240000      -4.98740000       1.10650000
H       -1.23430000      -5.27230000      -1.83160000
