15
Properties=species:S:1:pos:R:3 gdb_42569=T pbc="F F F"
O        0.06990000       0.09610000       0.16890000
C        0.03720000       1.29030000       0.15850000
C       -1.04920000       2.32240000       0.11000000
C       -0.45190000       3.59550000       0.64600000
N       -0.15470000       3.20420000      -0.75960000
C        1.05180000       2.40480000      -0.12990000
C        0.96110000       3.31770000       1.08940000
C        1.92590000       4.30460000       1.60670000
N        1.56060000       3.09820000       2.38780000
H       -2.10800000       2.20720000      -0.08450000
H       -1.08270000       4.44850000       0.87590000
H        1.96590000       2.23490000      -0.69160000
H        2.94950000       4.31850000       1.24350000
H        1.54160000       5.27180000       1.92300000
H        0.91380000       3.32740000       3.13840000
