19
Properties=species:S:1:pos:R:3 gdb_38692=T pbc="F F F"
C       -0.03320000       1.54690000      -0.01130000
C        1.48080000       1.80330000       0.01410000
C        2.08980000       1.29140000       1.34280000
C        1.73060000      -0.20680000       1.50030000
C        2.21300000      -1.00130000       0.27770000
C        1.33300000      -0.31050000      -0.77220000
O        1.92260000       0.96300000      -1.06270000
C        0.02060000       0.01450000       0.03910000
O        0.30810000      -0.36560000       1.39070000
H       -0.58940000       1.94740000       0.83820000
H       -0.45900000       1.92220000      -0.94600000
H        1.78490000       2.82620000      -0.21680000
H        3.17720000       1.42030000       1.32940000
H        1.68940000       1.86230000       2.18720000
H        2.03590000      -0.60890000       2.46830000
H        3.27150000      -0.89010000       0.03590000
H        1.96800000      -2.05990000       0.40090000
H        1.18790000      -0.85130000      -1.70790000
H       -0.87850000      -0.50840000      -0.28840000
