15
Properties=species:S:1:pos:R:3 gdb_8378=T pbc="F F F"
O       -0.05760000       1.39300000      -0.09440000
C       -0.00810000       0.00100000      -0.01590000
C       -0.43270000      -0.71010000       1.26590000
C       -1.31690000      -0.70370000       0.05220000
C       -2.71390000      -0.09480000      -0.12880000
C       -3.00750000      -1.35640000      -0.98600000
O       -3.93030000      -1.78020000      -1.62510000
N       -1.74040000      -1.84410000      -0.73610000
H        0.67000000       1.75100000       0.42590000
H        0.78680000      -0.47280000      -0.59490000
H        0.08840000      -1.62350000       1.53570000
H       -0.73860000      -0.09040000       2.10310000
H       -3.31860000      -0.01430000       0.77590000
H       -2.73870000       0.84400000      -0.68340000
H       -1.24100000      -2.63790000      -1.10910000
