21
Properties=species:S:1:pos:R:3 gdb_94699=T pbc="F F F"
C       -0.19170000       1.55870000       0.08730000
C        0.04650000       0.05270000       0.00640000
O        0.78070000      -0.30210000      -1.17590000
C        2.19350000      -0.40350000      -1.02230000
C        2.56590000      -0.89040000       0.37840000
C        4.02770000      -1.21340000       0.56660000
C        1.45600000      -1.83590000       0.89850000
C        0.77890000      -0.49520000       1.23240000
O        2.08310000       0.14920000       1.29730000
H        0.74900000       2.08330000       0.27080000
H       -0.62680000       1.91960000      -0.84800000
H       -0.88230000       1.79620000       0.90420000
H       -0.91470000      -0.46920000      -0.09450000
H        2.53220000      -1.10500000      -1.79370000
H        2.68520000       0.56630000      -1.19270000
H        4.65520000      -0.36410000       0.27540000
H        4.23010000      -1.44360000       1.61590000
H        4.31410000      -2.07620000      -0.04350000
H        0.96610000      -2.50160000       0.18620000
H        1.77060000      -2.37560000       1.79310000
H        0.20730000      -0.38000000       2.15740000
