22
Properties=species:S:1:pos:R:3 gdb_12634=T pbc="F F F"
C       -0.26830000       1.56970000      -0.04000000
C        0.04930000       0.07120000      -0.00580000
C        0.87870000      -0.42990000      -1.17090000
C        1.69670000      -1.41380000      -0.80570000
C        1.55650000      -1.74180000       0.66720000
C        2.85280000      -2.18470000       1.35350000
C        0.85390000      -0.46010000       1.22720000
C        1.84520000       0.57070000       1.78410000
H        0.63820000       2.18000000      -0.08750000
H       -0.87300000       1.80850000      -0.92160000
H       -0.83860000       1.87860000       0.84260000
H       -0.91620000      -0.46090000      -0.02620000
H        0.76020000      -0.04520000      -2.17890000
H        2.35760000      -1.96670000      -1.46570000
H        0.84380000      -2.57800000       0.75960000
H        3.64500000      -1.43690000       1.25500000
H        2.69650000      -2.37370000       2.42100000
H        3.21970000      -3.11450000       0.90570000
H        0.16470000      -0.73340000       2.03450000
H        2.56800000       0.89000000       1.02580000
H        1.32410000       1.46200000       2.14480000
H        2.40650000       0.16000000       2.62800000
