18
Properties=species:S:1:pos:R:3 gdb_85578=T pbc="F F F"
C        0.63970000       1.30460000      -0.29950000
C       -0.05840000       0.01830000       0.15220000
O       -0.16980000      -0.92900000      -0.92250000
C        0.85250000      -1.79040000      -1.21340000
N        0.86810000      -2.46000000      -2.28630000
C        1.91560000      -1.95550000      -0.15650000
C        1.29610000      -1.88270000       1.24740000
C        0.59440000      -0.55290000       1.41860000
O        0.54850000       0.06690000       2.45330000
H        1.67880000       1.11780000      -0.58740000
H        0.11500000       1.72830000      -1.15910000
H        0.63160000       2.02650000       0.52040000
H       -1.09530000       0.25220000       0.41310000
H        0.06840000      -2.20690000      -2.87080000
H        2.42050000      -2.90480000      -0.33650000
H        2.67070000      -1.16700000      -0.26850000
H        0.54870000      -2.67960000       1.36180000
H        2.03130000      -2.00400000       2.04570000
