19
Properties=species:S:1:pos:R:3 gdb_36782=T pbc="F F F"
N       -0.01750000      -1.11100000      -0.25030000
C       -0.01280000       0.03970000      -0.15200000
C       -0.00620000       1.49680000       0.00350000
N        1.35420000       2.02080000      -0.01220000
C        1.40650000       3.46630000       0.18970000
C        2.84310000       3.96140000       0.13830000
C        3.50710000       3.94510000      -1.25510000
O        3.50850000       5.38840000      -1.31790000
C        3.01370000       5.49300000       0.03080000
H       -0.56310000       1.93630000      -0.83360000
H       -0.57540000       1.74320000       0.91910000
H        1.90390000       1.55100000       0.70090000
H        0.83280000       3.94000000      -0.61860000
H        0.93530000       3.78660000       1.13880000
H        3.43380000       3.49330000       0.93160000
H        4.52390000       3.53430000      -1.28690000
H        2.91370000       3.49160000      -2.05720000
H        2.09050000       6.08470000       0.08930000
H        3.75680000       5.92980000       0.71020000
