15
Properties=species:S:1:pos:R:3 gdb_24779=T pbc="F F F"
O        0.01350000      -0.03120000       0.00280000
C        0.01010000       1.18250000       0.00900000
C       -1.25040000       1.96270000       0.03060000
C       -1.26540000       3.31530000       0.03750000
N       -0.04310000       3.92700000       0.02320000
C        0.62920000       5.23570000       0.02110000
C        1.98340000       4.43760000      -0.00170000
C        1.10880000       3.19020000       0.00380000
N        1.23500000       1.92020000      -0.00420000
H       -2.17290000       1.39690000       0.04080000
H       -2.15520000       3.93360000       0.05300000
H        0.42000000       5.83600000      -0.86810000
H        0.44460000       5.82620000       0.92230000
H        2.58640000       4.57350000      -0.90080000
H        2.61090000       4.56410000       0.88190000
