22
Properties=species:S:1:pos:R:3 gdb_7154=T pbc="F F F"
C       -0.04430000       1.61120000       0.05710000
C        0.02290000       0.08230000      -0.00700000
C        0.78640000      -0.52150000       1.17710000
C        0.79660000      -2.06970000       1.21710000
C        1.53630000      -2.69500000       0.01620000
C        1.37190000      -2.54330000       2.47740000
C        1.86600000      -2.91780000       3.51020000
C        2.45360000      -3.37760000       4.76130000
H        0.95900000       2.05160000       0.05140000
H       -0.59300000       2.02300000      -0.79570000
H       -0.54610000       1.94770000       0.97110000
H       -0.99590000      -0.32830000      -0.02820000
H        0.49210000      -0.21720000      -0.95150000
H        1.82430000      -0.16310000       1.17380000
H        0.34240000      -0.15910000       2.11190000
H       -0.25060000      -2.40550000       1.17550000
H        1.54020000      -3.78540000       0.09240000
H        1.05800000      -2.42170000      -0.92830000
H        2.57680000      -2.35570000      -0.01220000
H        2.84540000      -4.39680000       4.66820000
H        3.28320000      -2.73340000       5.07400000
H        1.71610000      -3.38110000       5.57180000
