20
Properties=species:S:1:pos:R:3 gdb_105466=T pbc="F F F"
O        0.09980000       1.43250000       0.71440000
C       -0.02760000       0.14120000       0.13740000
C       -1.43480000      -0.42720000       0.23600000
C       -2.45240000       0.28530000      -0.64510000
C       -3.90130000      -0.22150000      -0.51210000
C       -4.84470000       0.59890000      -1.26080000
C       -5.60270000       1.29020000      -1.88740000
C       -1.54300000      -1.86880000       0.58730000
N       -1.90400000      -0.83230000       1.56930000
H       -0.35670000       2.06420000       0.15070000
H        0.30300000       0.13870000      -0.91340000
H        0.66320000      -0.49780000       0.69860000
H       -2.44670000       1.35240000      -0.38820000
H       -2.13480000       0.21420000      -1.69270000
H       -3.97070000      -1.25760000      -0.86550000
H       -4.16960000      -0.23800000       0.54980000
H       -6.28600000       1.89190000      -2.43340000
H       -2.37450000      -2.46910000       0.23060000
H       -0.62070000      -2.42820000       0.72650000
H       -1.16390000      -0.70370000       2.25510000
