19
Properties=species:S:1:pos:R:3 gdb_91689=T pbc="F F F"
C       -0.16250000       1.53430000      -0.00740000
C        0.05170000       0.02320000       0.00140000
C        1.02050000      -0.54670000      -1.08940000
C        1.97970000      -1.29170000      -0.13950000
O        1.06000000      -1.92960000       0.80020000
C        0.80260000      -0.55620000       1.22550000
C        2.30250000      -0.23110000       0.95410000
C        3.23210000      -0.72270000       2.02660000
O        4.14290000      -0.06840000       2.47170000
H        0.78280000       2.08370000       0.04770000
H       -0.67120000       1.84770000      -0.92450000
H       -0.78270000       1.85130000       0.83820000
H       -0.91710000      -0.48190000      -0.05660000
H        0.52970000      -1.23640000      -1.77900000
H        1.52230000       0.23330000      -1.66940000
H        2.73340000      -1.96200000      -0.55290000
H        0.34880000      -0.47150000       2.21360000
H        2.58260000       0.77740000       0.64480000
H        3.02030000      -1.74970000       2.39000000
