25
Properties=species:S:1:pos:R:3 gdb_122510=T pbc="F F F"
C       -0.04770000       1.49290000      -0.57310000
C       -0.01950000       0.16140000       0.18720000
C       -1.37040000      -0.52640000       0.19810000
C       -1.80290000      -1.42380000      -0.93800000
C       -1.55110000      -2.00880000       0.43500000
C       -0.39640000      -2.95700000       0.68460000
C       -0.76220000      -4.39970000       0.35270000
O        0.35220000      -5.22260000       0.62370000
C        0.10930000      -6.57990000       0.35140000
H        0.93390000       1.97700000      -0.56420000
H       -0.34160000       1.34260000      -1.61720000
H       -0.76630000       2.18820000      -0.12500000
H        0.73320000      -0.49490000      -0.26330000
H        0.31020000       0.33800000       1.21980000
H       -2.15930000       0.09390000       0.61990000
H       -2.82000000      -1.36040000      -1.30940000
H       -1.06480000      -1.63580000      -1.70700000
H       -2.44680000      -2.26770000       0.99680000
H        0.47650000      -2.67930000       0.08530000
H       -0.08240000      -2.91220000       1.73490000
H       -1.63190000      -4.72300000       0.95230000
H       -1.05680000      -4.48430000      -0.70770000
H        1.02100000      -7.13270000       0.59200000
H       -0.71830000      -6.97920000       0.96010000
H       -0.13790000      -6.74860000      -0.70930000
