21
Properties=species:S:1:pos:R:3 gdb_62878=T pbc="F F F"
C       -0.03240000       1.62880000      -0.19660000
C        0.02320000       0.10060000      -0.13290000
O       -1.32060000      -0.34810000      -0.24560000
C        1.16310000      -0.67290000      -0.89650000
C        2.12890000      -0.13470000       0.20560000
C        0.85300000      -0.61350000       0.97710000
C        0.92890000      -1.89910000       0.07940000
C       -0.21330000      -2.89280000      -0.09820000
O        2.09120000      -2.66400000       0.38700000
H        0.92350000       2.13740000      -0.08610000
H       -0.44780000       1.93730000      -1.16550000
H       -0.70900000       1.99440000       0.58200000
H       -1.73770000       0.15260000      -0.95370000
H        1.33830000      -0.70220000      -1.97510000
H        3.02250000      -0.72470000       0.37290000
H        2.34900000       0.92910000       0.21090000
H        0.67500000      -0.57730000       2.05370000
H        0.03190000      -3.57490000      -0.92510000
H       -0.30250000      -3.49930000       0.80940000
H       -1.16600000      -2.42390000      -0.31400000
H        2.06940000      -3.45250000      -0.16290000
