16
Properties=species:S:1:pos:R:3 gdb_8125=T pbc="F F F"
C       -0.01370000       1.55180000       0.03650000
C        0.06890000       0.04770000       0.01800000
C       -0.82370000      -0.81710000       0.89670000
C        0.68150000      -0.78620000       1.11770000
N        1.49510000      -1.75840000       0.44940000
C        1.26580000      -1.73780000      -0.92670000
O        1.60510000      -2.57470000      -1.73100000
N        0.57420000      -0.55770000      -1.18690000
H        0.94290000       1.99580000      -0.25520000
H       -0.78230000       1.91240000      -0.65700000
H       -0.27680000       1.91270000       1.03480000
H       -1.43370000      -0.30290000       1.63180000
H       -1.26410000      -1.71410000       0.47430000
H        1.09320000      -0.33350000       2.01300000
H        1.69270000      -2.65820000       0.85800000
H        0.07820000      -0.50090000      -2.06230000
