21
Properties=species:S:1:pos:R:3 gdb_61051=T pbc="F F F"
C       -0.00040000       1.53130000      -0.12140000
C        0.07500000       0.00330000       0.04430000
C        0.78690000      -0.33150000       1.34260000
O        1.70510000      -1.10100000       1.46100000
C       -1.32890000      -0.61500000       0.07880000
C       -2.22820000      -0.49290000      -1.17050000
O       -2.52430000      -1.89950000      -1.14790000
C       -1.53990000      -2.14820000      -0.10960000
C       -0.39000000      -3.00190000      -0.61470000
H        0.99840000       1.97400000      -0.18030000
H       -0.53870000       1.79380000      -1.03660000
H       -0.52690000       1.99460000       0.72070000
H        0.65920000      -0.43230000      -0.77180000
H        0.37110000       0.20230000       2.23200000
H       -1.85230000      -0.26020000       0.97330000
H       -3.12910000       0.12350000      -1.07300000
H       -1.69750000      -0.19950000      -2.08820000
H       -2.01230000      -2.63430000       0.75350000
H        0.05660000      -2.57520000      -1.51760000
H        0.39200000      -3.10000000       0.14410000
H       -0.76210000      -3.99990000      -0.86540000
