19
Properties=species:S:1:pos:R:3 gdb_91672=T pbc="F F F"
C       -0.10280000       1.55090000       0.02000000
C        0.06460000       0.03250000       0.01500000
C        1.00940000      -0.55180000      -1.09330000
C        1.96050000      -1.35810000      -0.17990000
N        1.07070000      -1.99720000       0.83830000
C        0.78650000      -0.58670000       1.24120000
C        2.29430000      -0.31020000       0.93060000
C        3.22610000      -0.75990000       1.94860000
N        3.99730000      -1.06390000       2.75430000
H        0.85870000       2.07230000       0.07520000
H       -0.60570000       1.89060000      -0.89100000
H       -0.70710000       1.87720000       0.87320000
H       -0.92990000      -0.42380000      -0.05420000
H        0.48940000      -1.19970000      -1.80410000
H        1.52430000       0.22710000      -1.66440000
H        2.73740000      -1.97170000      -0.63470000
H        0.26280000      -2.46880000       0.42980000
H        0.36870000      -0.41410000       2.23310000
H        2.56420000       0.69350000       0.59840000
