19
Properties=species:S:1:pos:R:3 gdb_111026=T pbc="F F F"
C       -0.20990000       1.37250000       0.12960000
O        0.39650000       0.12570000      -0.13810000
C        0.88260000      -0.50780000       1.00360000
C       -0.06740000      -1.38810000       1.88140000
C       -0.12620000      -2.38680000       0.68890000
C        1.38380000      -1.97000000       0.79910000
C        1.21800000      -2.12310000       2.34780000
C        2.48220000      -2.40870000      -0.01160000
C        3.40470000      -2.77870000      -0.68930000
H        0.48700000       2.06060000       0.63210000
H       -0.50030000       1.80330000      -0.83120000
H       -1.10600000       1.26740000       0.75860000
H        1.56510000       0.15260000       1.55940000
H       -0.89380000      -1.05710000       2.50890000
H       -0.34670000      -3.42780000       0.93650000
H       -0.64530000      -2.05580000      -0.20900000
H        1.92260000      -1.56470000       2.97030000
H        1.08670000      -3.14620000       2.70410000
H        4.21740000      -3.10290000      -1.29060000
