20
Properties=species:S:1:pos:R:3 gdb_105490=T pbc="F F F"
C        0.79020000      -0.40090000      -1.33330000
C        0.03470000      -0.06260000      -0.04240000
C        0.68700000      -0.62750000       1.21450000
C       -0.18690000      -0.76770000       2.49590000
O        0.29970000      -2.11210000       2.72000000
C        0.78510000      -2.17120000       1.35580000
C        2.00670000       0.08860000       1.55080000
N        2.71640000      -0.46140000       2.57950000
O        2.38600000       1.07790000       0.95170000
H        0.88410000      -1.48430000      -1.47200000
H        0.25950000      -0.00490000      -2.20420000
H        1.79120000       0.03450000      -1.31720000
H       -0.03830000       1.02450000       0.05990000
H       -0.98870000      -0.45360000      -0.10120000
H        0.02450000      -0.10480000       3.34020000
H       -1.26380000      -0.76020000       2.28130000
H        0.07940000      -2.70450000       0.70500000
H        1.77230000      -2.63660000       1.28740000
H        2.31960000      -1.19040000       3.15250000
H        3.53050000       0.03570000       2.90170000
