16
Properties=species:S:1:pos:R:3 gdb_52578=T pbc="F F F"
C       -0.43880000       1.36840000      -0.51350000
C       -0.24210000      -0.05820000      -0.29810000
C       -0.08110000      -1.23480000      -0.09820000
C        0.12910000      -2.66680000       0.12640000
C       -1.12580000      -3.36450000       0.42230000
C       -2.15060000      -3.94570000       0.65310000
C        0.84140000      -3.39870000      -1.06330000
N        0.57160000      -2.87980000      -2.28500000
O        1.53530000      -4.36910000      -0.86200000
H        0.31390000       1.77660000      -1.19660000
H       -1.42600000       1.57310000      -0.94150000
H       -0.36470000       1.92050000       0.42950000
H        0.81720000      -2.81140000       0.96810000
H       -3.05530000      -4.46070000       0.86260000
H        0.07960000      -2.00730000      -2.37810000
H        1.01190000      -3.29470000      -3.08920000
