18
Properties=species:S:1:pos:R:3 gdb_81413=T pbc="F F F"
O       -0.08680000       1.41710000       0.06810000
C        0.02910000       0.01860000       0.01380000
C       -1.35990000      -0.65370000      -0.20930000
C       -1.19020000      -0.28060000      -1.71910000
C        0.29500000      -0.60940000      -1.40020000
N        0.22470000      -2.02950000      -1.06030000
C       -0.97060000      -2.14440000      -0.20310000
C        0.98530000      -3.05780000      -1.49180000
O        0.80910000      -4.22160000      -1.18780000
H        0.79820000       1.79480000       0.04310000
H        0.64910000      -0.37890000       0.82870000
H       -2.22920000      -0.35970000       0.37580000
H       -1.68990000      -0.90240000      -2.46500000
H       -1.35620000       0.77900000      -1.90060000
H        1.13870000      -0.34610000      -2.03750000
H       -0.71750000      -2.53190000       0.78850000
H       -1.72420000      -2.79920000      -0.65100000
H        1.80380000      -2.71830000      -2.15900000
