23
Properties=species:S:1:pos:R:3 gdb_114950=T pbc="F F F"
C       -0.31360000       1.24960000       0.15200000
C        0.00760000      -0.22550000      -0.14770000
C        0.83310000      -0.42200000      -1.38550000
C        2.05930000      -0.94420000      -1.46110000
C        2.60730000      -0.96570000      -2.86510000
C        1.36920000      -0.62340000      -3.74130000
C        0.79020000      -1.87690000      -4.39420000
O        1.76160000      -2.41340000      -5.28140000
C        0.34260000       0.00110000      -2.75810000
H        0.60490000       1.82960000       0.28800000
H       -0.88120000       1.70980000      -0.66290000
H       -0.91060000       1.33980000       1.06470000
H        0.52880000      -0.66670000       0.70940000
H       -0.94020000      -0.77380000      -0.25160000
H        2.62640000      -1.30060000      -0.60640000
H        3.40750000      -0.22260000      -2.98810000
H        3.04310000      -1.92850000      -3.15270000
H        1.63220000       0.07050000      -4.54470000
H        0.52100000      -2.60370000      -3.60990000
H       -0.13400000      -1.61460000      -4.93410000
H        1.43240000      -3.25170000      -5.61740000
H       -0.68330000      -0.34080000      -2.95620000
H        0.31390000       1.09530000      -2.84600000
