21
Properties=species:S:1:pos:R:3 gdb_89238=T pbc="F F F"
C       -0.07180000       1.51370000      -0.10030000
C        0.05580000       0.00120000       0.01410000
O        0.92000000      -0.52060000      -1.01350000
C        1.92320000      -1.21870000      -0.28490000
C        2.91260000      -1.84030000      -1.23300000
C        1.26410000      -1.96810000       0.92370000
C        2.53070000      -1.70690000       1.76930000
C        2.31650000      -0.39180000       0.98580000
C        0.77600000      -0.51810000       1.25200000
H        0.89900000       2.00010000       0.03490000
H       -0.45760000       1.78960000      -1.08590000
H       -0.76280000       1.89970000       0.65710000
H       -0.93570000      -0.46260000      -0.09280000
H        3.38250000      -1.06710000      -1.84840000
H        3.69670000      -2.38110000      -0.69780000
H        2.40430000      -2.53960000      -1.90380000
H        0.64860000      -2.86860000       0.88350000
H        2.37950000      -1.64880000       2.85000000
H        3.42340000      -2.29280000       1.53690000
H        2.91690000       0.51870000       1.01980000
H        0.37400000      -0.29070000       2.23980000
