18
Properties=species:S:1:pos:R:3 gdb_60868=T pbc="F F F"
C        0.07890000       1.46420000      -0.26020000
C        0.00360000      -0.04740000       0.00900000
C        0.67150000      -0.38000000       1.33640000
O        1.64890000      -1.07300000       1.44640000
C       -1.43840000      -0.57150000       0.00930000
C       -2.02950000      -1.07800000      -1.30080000
C       -1.67290000      -2.05830000      -0.22610000
C       -2.34280000       0.09670000       0.91300000
N       -3.05710000       0.64340000       1.64140000
H        1.11970000       1.79510000      -0.31230000
H       -0.40740000       1.70640000      -1.20960000
H       -0.42390000       2.03170000       0.52900000
H        0.55550000      -0.59450000      -0.76180000
H        0.18180000       0.07750000       2.22600000
H       -3.07780000      -0.87690000      -1.48540000
H       -1.39120000      -1.00650000      -2.17440000
H       -0.78240000      -2.66470000      -0.34810000
H       -2.47590000      -2.53330000       0.32410000
