16
Properties=species:S:1:pos:R:3 gdb_72776=T pbc="F F F"
O       -0.19720000       1.40880000      -0.17310000
C       -0.06920000       0.00210000      -0.12300000
C       -1.21630000      -0.54020000       0.78590000
O       -0.24460000      -0.75260000       1.89670000
C        0.75920000      -0.57740000       0.98650000
N        1.88140000      -1.12470000       0.76580000
C        2.00500000      -1.06470000      -0.69180000
C        1.06820000      -2.02150000      -1.37650000
C        0.65910000      -0.56880000      -1.31680000
H        0.67190000       1.77530000      -0.37400000
H       -1.96820000       0.19910000       1.05890000
H       -1.65160000      -1.49760000       0.49540000
H        2.97950000      -0.84420000      -1.10990000
H        1.34440000      -2.38770000      -2.36030000
H        0.56740000      -2.75390000      -0.75080000
H        0.63620000      -0.00230000      -2.24000000
