21
Properties=species:S:1:pos:R:3 gdb_76613=T pbc="F F F"
C        0.55180000       1.53680000       0.18750000
C       -0.00180000       0.12600000      -0.02660000
C        0.33960000      -0.78950000       1.15670000
O       -1.43360000       0.28300000      -0.10480000
C        0.54950000      -0.46450000      -1.32810000
C       -0.14820000      -1.56690000      -2.10830000
O       -1.44360000      -1.95890000      -1.71730000
C       -0.04480000      -0.17030000      -2.68690000
O       -1.24560000       0.53460000      -2.82310000
H        1.64100000       1.51600000       0.28580000
H        0.29430000       2.18210000      -0.65690000
H        0.12750000       1.97080000       1.09740000
H       -0.07410000      -0.37640000       2.08120000
H       -0.07960000      -1.78880000       1.00320000
H        1.42300000      -0.89270000       1.27590000
H       -1.78080000      -0.60380000      -0.29200000
H        1.63390000      -0.54760000      -1.31980000
H        0.44380000      -2.38370000      -2.51350000
H       -2.04330000      -1.51690000      -2.33850000
H        0.62340000       0.01020000      -3.52350000
H       -1.53360000       0.77500000      -1.92460000
