21
Properties=species:S:1:pos:R:3 gdb_96483=T pbc="F F F"
C       -0.10130000       1.57230000       0.10520000
C       -0.06030000       0.05240000      -0.01650000
C        0.46590000      -0.39250000      -1.40330000
C        0.32820000      -1.87160000      -1.67170000
C        1.06570000      -2.83450000      -1.11360000
C        2.14430000      -2.57460000      -0.09830000
O        1.66670000      -2.57010000       1.25340000
C        0.57590000      -1.72810000       1.50820000
O        0.76830000      -0.41280000       1.04820000
H        0.90000000       1.99350000      -0.02950000
H       -0.76370000       2.00560000      -0.65000000
H       -0.46130000       1.86200000       1.09560000
H       -1.07580000      -0.34950000       0.11900000
H       -0.08290000       0.16670000      -2.16830000
H        1.51260000      -0.07290000      -1.46970000
H       -0.46830000      -2.16080000      -2.35450000
H        0.84550000      -3.87350000      -1.34600000
H        2.90090000      -3.36300000      -0.11690000
H        2.64240000      -1.61980000      -0.30470000
H       -0.35510000      -2.13290000       1.08320000
H        0.50420000      -1.70600000       2.60130000
