20
Properties=species:S:1:pos:R:3 gdb_122863=T pbc="F F F"
C       -0.18950000       1.30730000       0.04400000
O       -0.00120000      -0.08650000       0.05930000
C        0.51580000      -0.58240000      -1.15220000
C        0.62330000      -2.08820000      -1.06820000
O       -0.70310000      -2.62560000      -1.10620000
C       -0.80000000      -3.95460000      -1.01160000
N        0.20800000      -4.71960000      -0.91160000
O       -2.11870000      -4.24740000      -1.05110000
C       -2.47110000      -5.61840000      -0.96390000
H        0.75640000       1.84780000      -0.12340000
H       -0.90180000       1.61550000      -0.73780000
H       -0.59060000       1.59370000       1.01910000
H       -0.12980000      -0.30180000      -2.00070000
H        1.52070000      -0.16960000      -1.34900000
H        1.20410000      -2.48240000      -1.90850000
H        1.11810000      -2.39150000      -0.14110000
H       -0.04860000      -5.69900000      -0.84910000
H       -2.05400000      -6.19330000      -1.79960000
H       -2.13490000      -6.05860000      -0.01740000
H       -3.56000000      -5.65190000      -1.01070000
