23
Properties=species:S:1:pos:R:3 gdb_63662=T pbc="F F F"
C       -0.01120000       1.52860000      -0.18590000
C       -0.01400000       0.02110000      -0.00940000
C       -1.21760000      -0.65840000      -0.63800000
C        1.30630000      -0.71680000      -0.05350000
C        0.54380000      -0.60850000       1.25160000
C        1.09330000       0.17700000       2.42310000
C        2.07820000      -0.66450000       3.26610000
C        2.62130000       0.06570000       4.40470000
C        3.05350000       0.69380000       5.33430000
H        0.88600000       1.99720000       0.22540000
H       -0.05600000       1.78700000      -1.25050000
H       -0.88110000       1.98740000       0.29940000
H       -1.26310000      -0.46020000      -1.71570000
H       -1.18330000      -1.74370000      -0.50040000
H       -2.15310000      -0.29510000      -0.19550000
H        1.35270000      -1.67760000      -0.55630000
H        2.21010000      -0.12240000      -0.15370000
H        0.02900000      -1.51860000       1.55650000
H        1.61220000       1.07780000       2.08230000
H        0.27680000       0.51700000       3.07150000
H        1.57110000      -1.57120000       3.62150000
H        2.89780000      -1.00970000       2.62320000
H        3.44190000       1.23720000       6.15940000
