19
Properties=species:S:1:pos:R:3 gdb_40889=T pbc="F F F"
C        0.08990000       1.59600000      -0.06970000
O        1.44850000       1.54570000       0.41000000
C        1.44120000       0.10040000       0.44880000
C       -0.00700000       0.06520000      -0.06000000
C       -1.06430000      -0.81740000       0.62880000
C       -2.38810000      -0.41970000      -0.05480000
C       -1.86880000      -0.46190000      -1.52980000
C       -0.41590000      -0.87010000      -1.21290000
O       -0.59990000      -1.92330000      -0.21180000
H       -0.57610000       2.12260000       0.62760000
H        0.01640000       2.07440000      -1.05590000
H        2.19510000      -0.33310000      -0.22010000
H        1.60240000      -0.28480000       1.46340000
H       -1.05440000      -1.03210000       1.69800000
H       -3.17220000      -1.15360000       0.14050000
H       -2.74830000       0.56580000       0.25340000
H       -2.37100000      -1.21870000      -2.13530000
H       -1.93900000       0.50000000      -2.04530000
H        0.25720000      -1.13870000      -2.02770000
