17
Properties=species:S:1:pos:R:3 gdb_56341=T pbc="F F F"
N       -0.91180000       1.10940000      -0.28200000
C       -0.63350000      -0.18740000       0.03170000
O       -0.26270000      -0.58640000       1.11160000
O       -0.87180000      -0.98060000      -1.04850000
C       -0.66230000      -2.38350000      -0.84160000
C       -1.87810000      -3.04960000      -0.21500000
O       -2.99830000      -3.02700000      -1.09200000
C       -3.86550000      -2.00200000      -0.96340000
N       -4.79290000      -1.85260000      -1.80540000
H       -0.59590000       1.80710000       0.36900000
H       -1.01540000       1.36710000      -1.24870000
H       -0.47910000      -2.79410000      -1.83670000
H        0.21050000      -2.53750000      -0.20180000
H       -1.65150000      -4.10350000      -0.02680000
H       -2.11530000      -2.57080000       0.74190000
H       -3.67810000      -1.37970000      -0.07800000
H       -5.37150000      -1.05750000      -1.54280000
