16
Properties=species:S:1:pos:R:3 gdb_42934=T pbc="F F F"
O        0.01290000       0.03020000      -0.23810000
C       -0.03610000       1.21000000      -0.06340000
C       -1.15140000       2.23430000      -0.05500000
N       -0.91660000       3.04540000       1.19260000
C       -0.12670000       3.33350000      -0.00880000
C        1.04840000       2.33970000       0.00950000
C        2.02800000       2.39770000       1.19010000
C        3.00340000       1.31530000       1.17260000
C        3.81130000       0.42670000       1.13950000
H       -2.13240000       2.19490000      -0.51060000
H       -1.68540000       3.71450000       1.23650000
H       -0.16570000       4.29290000      -0.50780000
H        1.58920000       2.33580000      -0.94330000
H        2.55340000       3.36200000       1.16570000
H        1.45440000       2.38020000       2.12260000
H        4.51600000      -0.36720000       1.11940000
