22
Properties=species:S:1:pos:R:3 gdb_22078=T pbc="F F F"
C       -0.87500000       1.05000000       0.07620000
C        0.16050000      -0.04490000       0.10690000
N        0.84050000      -0.33780000       1.15230000
O        0.47450000       0.46570000       2.24820000
C        0.38880000      -0.84210000      -1.12470000
C        1.33530000      -2.01780000      -1.16980000
C       -0.14320000      -2.27440000      -1.29430000
C       -0.85780000      -2.94540000      -0.13880000
C       -0.69140000      -2.63360000      -2.66200000
H       -1.24880000       1.21420000      -0.93600000
H       -1.72050000       0.79150000       0.72350000
H       -0.45860000       1.98240000       0.46800000
H        1.08260000       0.16190000       2.92980000
H        0.32480000      -0.24160000      -2.02890000
H        1.95770000      -2.12460000      -2.05240000
H        1.82100000      -2.28010000      -0.23740000
H       -0.45450000      -2.62520000       0.82400000
H       -1.93100000      -2.71970000      -0.15200000
H       -0.75020000      -4.03440000      -0.20620000
H       -0.61600000      -3.71300000      -2.84070000
H       -1.74900000      -2.35810000      -2.75080000
H       -0.14350000      -2.12590000      -3.46220000
