17
Properties=species:S:1:pos:R:3 gdb_78818=T pbc="F F F"
C        0.03600000       1.59600000      -0.09470000
C        0.08710000       0.07980000      -0.08380000
C        0.71160000      -0.75850000      -1.22210000
C        1.19840000      -1.70980000      -0.06380000
C        2.31950000      -0.76210000       0.12870000
C        2.17470000      -0.20950000      -1.30200000
C        2.99730000      -0.94210000      -2.25280000
N        3.65410000      -1.51620000      -3.01190000
N        1.03650000      -0.57650000       0.88550000
H        1.01630000       2.05110000      -0.25660000
H       -0.64240000       1.95180000      -0.87750000
H       -0.33850000       1.95800000       0.86780000
H       -0.90370000      -0.32260000       0.15210000
H        0.18150000      -1.01990000      -2.13500000
H        1.05170000      -2.75180000       0.18220000
H        3.22630000      -0.86000000       0.70860000
H        2.30230000       0.86390000      -1.46790000
