12
Properties=species:S:1:pos:R:3 gdb_24839=T pbc="F F F"
N       -0.20630000       1.41800000       0.09030000
C       -0.04430000       0.17030000      -0.03630000
N        1.19090000      -0.47790000      -0.20190000
C        1.41820000      -1.46020000      -0.95810000
O        0.62030000      -2.08730000      -1.88150000
C       -0.73070000      -1.88250000      -1.99060000
N       -1.54720000      -1.38500000      -1.17360000
C       -1.22140000      -0.79030000       0.05950000
O       -1.82490000      -1.01550000       1.07060000
H        0.69350000       1.89980000       0.01220000
H        2.40100000      -1.92230000      -0.99190000
H       -1.06060000      -2.28720000      -2.94390000
