20
Properties=species:S:1:pos:R:3 gdb_83834=T pbc="F F F"
C       -0.13610000       1.51310000       0.18200000
C        0.02120000       0.02120000      -0.00760000
C        0.65300000      -0.60110000      -1.22630000
C        1.28830000       0.26080000      -2.31260000
C        2.77640000       0.44570000      -2.03900000
O        3.02240000       0.93110000      -0.70970000
C        2.60000000       0.13650000       0.32800000
N        3.20120000       0.13480000       1.44320000
C        1.37270000      -0.67490000       0.11070000
H        0.72260000       2.07230000      -0.19650000
H       -1.03280000       1.87960000      -0.33060000
H       -0.23770000       1.75190000       1.24540000
H       -0.79330000      -0.55840000       0.41890000
H        0.20770000      -1.52860000      -1.57100000
H        1.16710000      -0.21690000      -3.29010000
H        0.80290000       1.24010000      -2.37890000
H        3.31240000      -0.50300000      -2.17760000
H        3.22440000       1.19020000      -2.70160000
H        4.01950000       0.74590000       1.39280000
H        1.38680000      -1.61190000       0.65290000
