19
Properties=species:S:1:pos:R:3 gdb_7350=T pbc="F F F"
C        0.88600000       1.21420000       0.32300000
C        0.08050000      -0.03100000       0.00370000
O        0.73810000      -0.70620000      -1.08150000
C        0.16190000      -1.83910000      -1.52420000
N       -0.89380000      -2.31560000      -1.01090000
C        0.94570000      -2.41490000      -2.70620000
C        2.43640000      -2.56940000      -2.39630000
O        0.36170000      -3.62940000      -3.14750000
H        1.90660000       0.95470000       0.61920000
H        0.93860000       1.87920000      -0.54380000
H        0.41660000       1.75930000       1.14740000
H        0.01660000      -0.71070000       0.85970000
H       -0.94570000       0.20610000      -0.29560000
H       -1.15800000      -3.15040000      -1.53440000
H        0.82690000      -1.71640000      -3.54360000
H        2.58560000      -3.26550000      -1.56150000
H        2.96010000      -2.96040000      -3.27250000
H        2.87370000      -1.61060000      -2.11310000
H        0.65500000      -4.32870000      -2.55230000
