14
Properties=species:S:1:pos:R:3 gdb_33683=T pbc="F F F"
N       -0.06080000      -1.16640000       0.01970000
C       -0.03870000      -0.00860000      -0.00100000
C       -0.01380000       1.40630000      -0.02300000
C       -0.65600000       2.51250000       0.81550000
O        0.55410000       3.23440000       0.97360000
C        1.19230000       2.38900000      -0.03400000
C        1.06580000       3.11380000      -1.36220000
O       -0.35440000       3.25060000      -1.54760000
C       -0.98840000       2.38580000      -0.65310000
H       -1.35060000       2.46400000       1.64590000
H        2.17870000       2.04120000       0.26830000
H        1.51170000       4.11090000      -1.32300000
H        1.50620000       2.54110000      -2.19070000
H       -1.97420000       2.05970000      -0.96110000
