18
Properties=species:S:1:pos:R:3 gdb_38037=T pbc="F F F"
C        0.12110000       1.32310000       0.27500000
C        1.52070000       1.89460000      -0.08020000
C        2.24660000       0.60070000      -0.23650000
C        3.29000000      -0.00060000       0.33330000
C        3.10090000      -1.48750000       0.27690000
N        1.92310000      -1.86830000       1.11130000
C        1.76890000      -1.73180000      -0.35060000
C        1.26130000      -0.38210000      -0.84250000
O       -0.02160000       0.08150000      -0.43070000
H        0.05430000       1.14480000       1.35640000
H       -0.70040000       1.98200000      -0.02410000
H        1.47270000       2.45700000      -1.02080000
H        1.91780000       2.54780000       0.69930000
H        4.06940000       0.47740000       0.91530000
H        3.92780000      -2.18340000       0.18600000
H        1.97880000      -2.86370000       1.32350000
H        1.57730000      -2.62140000      -0.93970000
H        1.28710000      -0.38490000      -1.94450000
