20
Properties=species:S:1:pos:R:3 gdb_106777=T pbc="F F F"
C       -0.40570000       1.30680000      -0.53990000
N        0.04860000      -0.04090000      -0.24320000
C        1.32800000      -0.50860000      -0.86430000
C        1.85420000      -0.86370000       0.52480000
O        2.53050000      -2.03960000       0.78000000
C        1.88000000       0.36600000       1.40090000
C        0.55950000      -0.33280000       1.09830000
C       -0.30410000      -0.96940000       2.14850000
O        0.57300000      -1.74070000       2.97800000
H        0.33960000       2.09450000      -0.33140000
H       -0.67760000       1.37160000      -1.59850000
H       -1.30310000       1.52720000       0.04790000
H        1.17200000      -1.37650000      -1.51190000
H        1.89130000       0.26020000      -1.40940000
H        2.18540000      -2.37600000       1.61760000
H        2.25550000       0.17910000       2.40180000
H        2.10490000       1.35330000       1.00360000
H       -0.84520000      -0.22450000       2.75290000
H       -1.04700000      -1.60740000       1.64870000
H        0.05490000      -2.15010000       3.67630000
