14
Properties=species:S:1:pos:R:3 gdb_45403=T pbc="F F F"
O       -0.12410000       0.19000000       0.37020000
C       -0.00400000       1.31500000       0.02340000
O       -0.96740000       2.17790000      -0.43530000
C       -0.01170000       3.26150000      -0.64810000
C        0.07460000       4.19680000       0.56940000
C        1.17030000       3.28280000       1.19640000
C        1.12830000       2.35830000      -0.07850000
C        2.35540000       2.00950000      -0.74090000
N        3.34700000       1.74900000      -1.27540000
H       -0.05830000       3.63900000      -1.66690000
H        0.44590000       5.19120000       0.31430000
H       -0.86210000       4.29370000       1.11970000
H        2.13760000       3.77240000       1.30640000
H        0.92310000       2.77090000       2.12680000
