15
Properties=species:S:1:pos:R:3 gdb_4857=T pbc="F F F"
C       -0.09250000       1.39510000      -0.10960000
O        0.50570000       0.11360000       0.11960000
C        0.80370000      -0.59510000      -0.96890000
C        0.64040000      -1.89780000      -1.29500000
N        1.24090000      -2.12470000      -2.53210000
C        1.71600000      -0.97880000      -2.89400000
C        2.43780000      -0.61910000      -4.14090000
O        1.49430000       0.01940000      -1.98160000
H        0.59100000       2.05620000      -0.65000000
H       -1.02550000       1.28980000      -0.67530000
H       -0.30330000       1.80910000       0.87690000
H        0.14840000      -2.67490000      -0.73510000
H        1.89330000       0.14100000      -4.71160000
H        3.43350000      -0.21770000      -3.92400000
H        2.54160000      -1.51500000      -4.75360000
