21
Properties=species:S:1:pos:R:3 gdb_20016=T pbc="F F F"
C        0.01250000       1.48550000      -0.32160000
C       -0.05440000       0.08940000       0.30760000
C       -1.43170000      -0.53300000       0.20180000
C       -1.86330000      -1.23620000      -1.06800000
C       -1.63190000      -2.02880000       0.19250000
N       -0.47420000      -2.88000000       0.23860000
C       -0.29480000      -3.67160000       1.45170000
C       -0.72120000      -4.31700000       0.17870000
H        1.01470000       1.91570000      -0.22670000
H       -0.23970000       1.44920000      -1.38670000
H       -0.69160000       2.17350000       0.16010000
H        0.67290000      -0.57590000      -0.16730000
H        0.23490000       0.15160000       1.36530000
H       -2.21340000       0.02560000       0.71300000
H       -2.87820000      -1.11270000      -1.42960000
H       -1.11400000      -1.34960000      -1.84460000
H       -2.52000000      -2.40740000       0.70840000
H        0.72680000      -3.76970000       1.80780000
H       -1.04390000      -3.57620000       2.23620000
H       -1.75510000      -4.65230000       0.11300000
H       -0.01660000      -4.89500000      -0.41270000
