16
Properties=species:S:1:pos:R:3 gdb_83020=T pbc="F F F"
O        0.01670000       1.38800000       0.09000000
C       -0.04490000       0.00200000      -0.01470000
C       -1.35150000      -0.74490000      -0.00430000
C       -2.60630000       0.07540000      -0.30600000
C       -2.40560000       0.56040000      -1.71950000
C       -1.26040000       0.09270000      -2.25070000
C       -0.80150000       0.34990000      -3.57310000
N       -0.41040000       0.53750000      -4.64720000
C       -0.48200000      -0.72890000      -1.27150000
H       -0.31990000       1.77900000      -0.72480000
H        0.77540000      -0.45840000       0.52760000
H       -1.44130000      -1.63990000       0.59960000
H       -3.52400000      -0.51880000      -0.22100000
H       -2.71190000       0.91980000       0.38840000
H       -3.09830000       1.21920000      -2.22950000
H        0.08810000      -1.57940000      -1.62580000
