20
Properties=species:S:1:pos:R:3 gdb_63239=T pbc="F F F"
C       -0.24830000       1.56300000       0.06660000
C        0.01310000       0.04060000      -0.01200000
C       -1.34160000      -0.70570000      -0.01380000
C        0.77690000      -0.28300000      -1.26990000
C        1.97230000      -0.85860000      -1.30460000
C        2.72200000      -1.26400000      -0.07580000
N        1.98870000      -0.95160000       1.13490000
C        0.76370000      -0.36650000       1.26640000
O        0.27870000      -0.16980000       2.36850000
H        0.68960000       2.12660000       0.05380000
H       -0.85140000       1.88820000      -0.78750000
H       -0.78210000       1.79900000       0.98950000
H       -1.94800000      -0.38760000      -0.86830000
H       -1.19680000      -1.78810000      -0.08470000
H       -1.88450000      -0.48820000       0.90840000
H        0.28280000      -0.01130000      -2.20120000
H        2.46740000      -1.06380000      -2.24900000
H        2.93910000      -2.34340000      -0.11510000
H        3.70320000      -0.76320000      -0.05990000
H        2.41340000      -1.18720000       2.02070000
