16
Properties=species:S:1:pos:R:3 gdb_46616=T pbc="F F F"
O       -0.11280000      -0.04380000      -0.16630000
C        0.01920000       1.14580000      -0.09150000
O       -1.10350000       1.99410000      -0.06920000
C       -0.70470000       3.36070000       0.04340000
C        0.78780000       3.28550000       0.05770000
C        1.18520000       2.00700000      -0.02580000
C        2.68540000       1.93070000       0.06540000
C        3.06580000       3.44440000      -0.07920000
N        1.80710000       4.18670000       0.22180000
H       -1.10560000       3.92860000      -0.80590000
H       -1.11500000       3.79130000       0.96550000
H        3.01300000       1.53270000       1.03330000
H        3.15640000       1.32010000      -0.70910000
H        3.86030000       3.75050000       0.60500000
H        3.39360000       3.66120000      -1.10390000
H        1.71490000       5.11610000      -0.16280000
