16
Properties=species:S:1:pos:R:3 gdb_87310=T pbc="F F F"
C       -0.27110000       1.44030000       0.24910000
N        0.01860000       0.01420000       0.15730000
C        1.35070000      -0.42530000      -0.19370000
C        0.81190000      -0.64630000       1.19390000
C        1.44970000       0.11850000       2.36010000
C        0.47840000       0.52840000       3.37580000
N       -0.29130000       0.86750000       4.16730000
C        0.33650000      -1.96810000       1.55990000
N       -0.00630000      -3.02930000       1.86290000
H        0.59040000       2.06330000       0.53230000
H       -0.61880000       1.77390000      -0.73220000
H       -1.07420000       1.59870000       0.97270000
H        1.42030000      -1.25710000      -0.88820000
H        2.14160000       0.32070000      -0.28090000
H        2.20740000      -0.51700000       2.83060000
H        1.96730000       1.00780000       1.99210000
