26
Properties=species:S:1:pos:R:3 gdb_14788=T pbc="F F F"
C       -0.05310000       1.61090000      -0.04580000
C       -0.01140000       0.08060000      -0.01850000
C        0.72010000      -0.48200000       1.20530000
C        0.76720000      -2.01320000       1.24080000
C        1.49840000      -2.57510000       2.46490000
C        1.54560000      -4.10630000       2.50050000
C        2.27700000      -4.66890000       3.72430000
C        2.31870000      -6.19920000       3.75160000
H        0.95760000       2.03410000      -0.06020000
H       -0.58170000       1.98270000      -0.92930000
H       -0.56320000       2.00860000       0.83880000
H       -1.03570000      -0.31480000      -0.04060000
H        0.47420000      -0.28950000      -0.93140000
H        1.74520000      -0.08590000       1.22820000
H        0.23450000      -0.11170000       2.11920000
H       -0.25810000      -2.40840000       1.21750000
H        1.25290000      -2.38260000       0.32670000
H        2.52370000      -2.17990000       2.48830000
H        1.01280000      -2.20570000       3.37910000
H        0.52050000      -4.50240000       2.47760000
H        2.03120000      -4.47660000       1.58660000
H        3.30130000      -4.27350000       3.74630000
H        1.79140000      -4.29890000       4.63710000
H        1.30800000      -6.62240000       3.76600000
H        2.82880000      -6.59690000       2.86700000
H        2.84730000      -6.57100000       4.63510000
