23
Properties=species:S:1:pos:R:3 gdb_77466=T pbc="F F F"
C       -0.02390000       1.57510000      -0.02860000
C        0.12250000       0.06770000       0.05610000
C        1.36620000      -0.73410000      -0.22860000
C        1.42640000      -1.83190000      -1.25320000
C        2.59920000       0.01350000       0.29780000
C        1.98990000      -0.06470000       1.73750000
O        1.76830000       1.12100000       2.47910000
C        0.73190000      -0.72920000       1.18910000
C       -0.03020000      -1.79090000       1.93370000
H        0.81010000       2.10150000       0.43520000
H       -0.10710000       1.89800000      -1.07330000
H       -0.93330000       1.89750000       0.49040000
H       -0.75870000      -0.45090000      -0.32410000
H        1.63050000      -1.43060000      -2.25380000
H        2.21800000      -2.55530000      -1.02350000
H        0.47920000      -2.37900000      -1.30880000
H        3.52710000      -0.55750000       0.20240000
H        2.76450000       1.01970000      -0.09980000
H        2.55590000      -0.78770000       2.34290000
H        2.61580000       1.42400000       2.82050000
H       -0.62460000      -1.35460000       2.74550000
H       -0.72200000      -2.32380000       1.27270000
H        0.64280000      -2.53300000       2.37990000
