14
Properties=species:S:1:pos:R:3 gdb_7903=T pbc="F F F"
O        0.18310000       1.21830000      -0.56210000
C        0.05530000      -0.05640000       0.03540000
C        0.50780000      -0.11140000       1.51200000
C       -0.33070000      -1.21220000       2.14550000
O       -0.11200000      -1.84050000       3.14360000
C       -1.57690000      -1.41480000       1.22220000
O       -2.45130000      -2.21000000       1.42720000
C       -1.43110000      -0.44360000       0.06200000
H        1.12020000       1.42410000      -0.64470000
H        0.61380000      -0.81090000      -0.53950000
H        1.57800000      -0.26770000       1.66520000
H        0.23180000       0.83930000       1.98990000
H       -2.01340000       0.45880000       0.29690000
H       -1.81400000      -0.84980000      -0.87540000
