18
Properties=species:S:1:pos:R:3 gdb_47729=T pbc="F F F"
O        0.06290000       0.02050000       0.31000000
C        0.00230000       1.21300000       0.09520000
C       -1.30690000       1.96150000      -0.08270000
C       -1.16530000       3.13960000      -1.05940000
O       -0.07790000       3.96920000      -0.69760000
C        1.15880000       3.29870000      -0.85170000
C        1.24530000       2.05860000       0.02670000
C        2.09980000       2.01570000       1.25760000
N        2.52760000       1.35550000       0.02750000
H       -2.08720000       1.25860000      -0.38720000
H       -1.58120000       2.36090000       0.90270000
H       -1.03530000       2.76650000      -2.08890000
H       -2.06090000       3.76580000      -1.04060000
H        1.30570000       3.00130000      -1.90330000
H        1.94590000       4.01060000      -0.59210000
H        2.65830000       2.90730000       1.53150000
H        1.76000000       1.40150000       2.08720000
H        2.32340000       0.35740000       0.09730000
