19
Properties=species:S:1:pos:R:3 gdb_83979=T pbc="F F F"
O        0.64060000       0.55430000       1.08310000
C        0.08640000      -0.39330000       0.21790000
C       -1.46540000      -0.47710000      -0.00950000
C       -2.23970000       0.84890000       0.07710000
C       -3.09530000       0.88120000      -1.20480000
C       -2.19160000       0.28420000      -2.31170000
C       -1.23150000      -0.65730000      -1.55350000
C        0.17870000      -0.10710000      -1.28090000
O        0.92130000       0.61380000      -1.89040000
H        1.11550000       1.19000000       0.53280000
H        0.46990000      -1.39670000       0.45310000
H       -1.96070000      -1.29510000       0.51450000
H       -2.83400000       0.92780000       0.99060000
H       -1.53550000       1.68930000       0.08780000
H       -3.97840000       0.24520000      -1.07080000
H       -3.45580000       1.88490000      -1.44880000
H       -2.76750000      -0.24020000      -3.07780000
H       -1.61620000       1.06540000      -2.81950000
H       -1.22520000      -1.68990000      -1.90840000
