20
Properties=species:S:1:pos:R:3 gdb_70558=T pbc="F F F"
C        0.06640000       1.53790000       0.02350000
C       -0.05210000       0.02840000       0.02420000
C       -0.89920000      -0.64630000       1.04560000
N        0.55740000      -0.63800000       1.18870000
C        1.25830000      -1.92360000       1.05150000
C        1.62040000      -2.32220000      -0.39650000
C        0.44990000      -2.07490000      -1.32580000
O       -0.09360000      -2.93770000      -1.97430000
C        0.03240000      -0.61400000      -1.36300000
H        1.03780000       1.85310000      -0.37460000
H       -0.71440000       1.98820000      -0.60010000
H       -0.02770000       1.93070000       1.03850000
H       -1.45180000      -0.06790000       1.78290000
H       -1.37850000      -1.58330000       0.75990000
H        2.17990000      -1.87060000       1.64130000
H        0.64280000      -2.71200000       1.49960000
H        2.45850000      -1.69970000      -0.73630000
H        1.92360000      -3.37010000      -0.44630000
H       -0.91230000      -0.51530000      -1.90500000
H        0.80010000      -0.08540000      -1.94690000
