19
Properties=species:S:1:pos:R:3 gdb_94466=T pbc="F F F"
C       -0.42300000       1.42300000      -0.04000000
C        0.17680000       0.03440000      -0.06220000
O        1.46210000      -0.01470000      -0.73070000
C        2.03740000      -0.81310000       0.31960000
C        0.79510000      -0.61120000       1.21000000
C        0.95660000       0.20670000       2.50030000
O       -0.06620000      -0.29680000       3.34500000
C       -0.11600000      -1.66410000       3.03890000
O        0.12480000      -1.78300000       1.64710000
H        0.28130000       2.15520000       0.36550000
H       -0.68200000       1.73560000      -1.05620000
H       -1.33630000       1.43450000       0.56440000
H       -0.52380000      -0.67980000      -0.51740000
H        2.18640000      -1.85940000       0.02470000
H        2.98430000      -0.39560000       0.68510000
H        1.95270000       0.02990000       2.93780000
H        0.80980000       1.28010000       2.37840000
H        0.65400000      -2.22390000       3.59990000
H       -1.11180000      -2.04960000       3.27690000
