17
Properties=species:S:1:pos:R:3 gdb_125312=T pbc="F F F"
C        0.00260000       1.55990000      -0.00230000
C        0.01070000       0.06440000      -0.02330000
C       -0.00280000      -0.77220000      -1.10110000
N        0.01260000      -2.06290000      -0.61870000
C        0.00610000      -3.22170000      -1.39940000
O        0.01970000      -4.34280000      -0.97940000
N        0.03580000      -2.09180000       0.74370000
C        0.03480000      -0.82370000       1.10880000
C        0.05710000      -0.44320000       2.55330000
H        0.88650000       1.95970000       0.50800000
H       -0.01080000       1.97100000      -1.01500000
H       -0.87440000       1.95000000       0.52710000
H       -0.02170000      -0.57300000      -2.16160000
H       -0.01340000      -2.95610000      -2.47350000
H        0.93750000       0.16540000       2.78940000
H       -0.82450000       0.15070000       2.82040000
H        0.07540000      -1.34000000       3.17480000
