17
Properties=species:S:1:pos:R:3 gdb_6456=T pbc="F F F"
C       -0.04700000       1.55770000       0.14070000
N       -0.00970000       0.11540000       0.10420000
C       -1.22930000      -0.63490000       0.43890000
C       -0.36260000      -1.68000000       1.21650000
O       -0.10200000      -2.85490000       0.51700000
C        0.76710000      -0.60080000       1.12690000
C       -0.83710000      -1.99480000       2.61180000
O       -0.95130000      -3.13030000       3.00690000
H        0.95110000       1.96020000      -0.06090000
H       -0.72080000       1.93160000      -0.63720000
H       -0.38950000       1.96290000       1.11380000
H       -1.92850000      -0.08420000       1.09150000
H       -1.77460000      -1.04900000      -0.41460000
H       -0.29920000      -3.57680000       1.13550000
H        1.73470000      -0.98920000       0.79480000
H        0.89890000      -0.03580000       2.06580000
H       -1.07550000      -1.12500000       3.25710000
