18
Properties=species:S:1:pos:R:3 gdb_75527=T pbc="F F F"
C        0.02680000       1.55150000       0.03900000
C       -0.07740000       0.05040000      -0.04990000
C       -1.21560000      -0.59530000       0.22790000
C       -1.47300000      -2.06920000       0.13020000
C       -0.45450000      -2.79640000      -0.73220000
O        0.84810000      -2.82950000      -0.12970000
C        1.69430000      -1.79070000      -0.26480000
O        2.88760000      -1.95340000      -0.22840000
N        1.14610000      -0.52570000      -0.45420000
H        0.77550000       1.85180000       0.78250000
H        0.33320000       1.98110000      -0.92310000
H       -0.93040000       1.99350000       0.31730000
H       -2.05030000       0.02040000       0.54570000
H       -1.49400000      -2.54030000       1.12290000
H       -2.46860000      -2.23810000      -0.30240000
H       -0.72550000      -3.84800000      -0.84890000
H       -0.38820000      -2.34350000      -1.72750000
H        1.89830000       0.13630000      -0.57650000
