19
Properties=species:S:1:pos:R:3 gdb_75582=T pbc="F F F"
C        0.01870000       1.44960000       0.45800000
C        0.00900000       0.01850000      -0.03230000
C       -1.07840000      -0.75020000       0.15530000
C       -1.40140000      -2.15820000      -0.24530000
C       -0.43320000      -2.84210000      -1.20020000
O        0.87490000      -2.86090000      -0.66490000
C        1.67860000      -1.79440000      -1.09170000
C        1.26910000      -0.35590000      -0.74170000
O        2.06420000       0.51250000      -1.05180000
H        0.84850000       1.62180000       1.15130000
H        0.17160000       2.14170000      -0.37500000
H       -0.91790000       1.69890000       0.96180000
H       -1.89710000      -0.27680000       0.69770000
H       -1.47660000      -2.76070000       0.67210000
H       -2.41030000      -2.17340000      -0.68260000
H       -0.73880000      -3.88340000      -1.35050000
H       -0.44260000      -2.34730000      -2.18350000
H        2.66480000      -1.94450000      -0.64170000
H        1.82190000      -1.81280000      -2.18480000
