20
Properties=species:S:1:pos:R:3 gdb_85900=T pbc="F F F"
C        0.03080000       1.52230000      -0.08310000
C        0.01170000      -0.00330000      -0.02740000
O       -1.32330000      -0.49250000       0.15150000
C        0.68900000      -0.68430000      -1.24090000
C        1.22260000      -2.05330000      -0.73850000
O        2.37290000      -2.50630000      -1.42740000
C        1.45070000      -1.82640000       0.74700000
N        2.23700000      -0.58420000       0.96950000
C        0.77080000      -0.58450000       1.16030000
H        1.05970000       1.89280000      -0.08330000
H       -0.46150000       1.88900000      -0.99200000
H       -0.49540000       1.93980000       0.78100000
H       -1.86110000      -0.14060000      -0.56560000
H       -0.00770000      -0.79110000      -2.07680000
H        1.53590000      -0.08610000      -1.58790000
H        0.46870000      -2.83480000      -0.87430000
H        3.07810000      -1.88660000      -1.20290000
H        1.59420000      -2.66890000       1.41460000
H        2.68610000      -0.63330000       1.88010000
H        0.35680000      -0.44680000       2.15380000
