17
Properties=species:S:1:pos:R:3 gdb_1581=T pbc="F F F"
O       -0.03120000       1.40440000       0.09280000
C        0.02530000      -0.01090000      -0.00190000
C       -1.40770000      -0.53000000      -0.00930000
C       -1.49610000      -2.05260000      -0.06190000
O       -0.85510000      -2.67420000       1.06280000
C       -2.93430000      -2.56810000      -0.15500000
O       -2.96690000      -3.97780000      -0.13990000
H        0.86960000       1.73910000       0.12480000
H        0.53730000      -0.33100000      -0.92410000
H        0.57200000      -0.45260000       0.84350000
H       -1.92230000      -0.15770000       0.88760000
H       -1.93720000      -0.10280000      -0.86920000
H       -0.94060000      -2.43440000      -0.92740000
H       -1.22700000      -2.27990000       1.86140000
H       -3.52280000      -2.14010000       0.67850000
H       -3.40100000      -2.23400000      -1.08820000
H       -2.30320000      -4.23880000       0.51230000
