21
Properties=species:S:1:pos:R:3 gdb_81224=T pbc="F F F"
C       -0.07180000       1.63900000      -0.03250000
C        0.04500000       0.12270000       0.00410000
C        1.11970000      -0.68140000      -0.75580000
C        2.45890000      -0.03750000      -0.23270000
C        2.12970000      -0.23350000       1.27220000
C        1.62290000       0.56430000       2.52740000
C        0.46190000      -0.51260000       2.63070000
C        0.70460000      -0.72050000       1.13030000
O        0.82430000      -1.80960000       0.15660000
H        0.87640000       2.15490000       0.13240000
H       -0.46000000       1.96110000      -1.00540000
H       -0.77830000       1.98980000       0.72770000
H       -0.92710000      -0.33500000      -0.20050000
H        1.04080000      -0.95370000      -1.80850000
H        3.34470000      -0.59940000      -0.53590000
H        2.56970000       0.98890000      -0.59080000
H        2.72990000      -1.06070000       1.66160000
H        2.30920000       0.62110000       3.37370000
H        1.23470000       1.56090000       2.31700000
H        0.77660000      -1.36690000       3.23540000
H       -0.53010000      -0.18440000       2.95020000
