23
Properties=species:S:1:pos:R:3 gdb_104580=T pbc="F F F"
C       -1.51630000       0.21740000       0.01860000
C       -0.00560000      -0.04510000       0.04790000
C        0.56490000      -0.56720000      -1.26610000
C        0.35060000       0.31870000      -2.49760000
C        0.87430000       1.73870000      -2.29080000
C        2.35460000       1.97060000      -2.53130000
O        0.13880000       2.63180000      -1.93290000
C        1.83830000      -1.38020000      -1.19630000
C        0.52310000      -2.05980000      -1.49640000
H       -1.75610000       1.04300000      -0.65650000
H       -2.06820000      -0.67040000      -0.30910000
H       -1.87910000       0.48890000       1.01470000
H        0.51140000       0.88050000       0.33070000
H        0.22640000      -0.77530000       0.83270000
H        0.84930000      -0.14250000      -3.35750000
H       -0.71700000       0.39550000      -2.72360000
H        2.59420000       1.78890000      -3.58570000
H        2.62060000       2.99510000      -2.26820000
H        2.95190000       1.26450000      -1.94470000
H        2.55740000      -1.29310000      -2.00430000
H        2.28780000      -1.54180000      -0.22200000
H        0.07990000      -2.67900000      -0.72340000
H        0.35570000      -2.42400000      -2.50460000
