15
Properties=species:S:1:pos:R:3 gdb_26934=T pbc="F F F"
N        0.02120000       1.41880000       0.18430000
C       -0.00540000       0.02540000       0.04260000
C       -1.09470000      -0.79890000       0.03320000
N       -0.63540000      -2.13480000      -0.03150000
C        0.70410000      -2.14040000      -0.07570000
O        1.42990000      -3.24230000      -0.14440000
C        1.17080000      -0.81550000      -0.02630000
C        2.57120000      -0.57750000      -0.01410000
O        3.40430000      -1.49550000      -0.07800000
H        0.70760000       1.86390000      -0.41180000
H       -0.88210000       1.84610000       0.02580000
H       -2.14920000      -0.58620000       0.07230000
H       -1.21290000      -2.95750000      -0.05370000
H        2.36640000      -2.89770000      -0.14310000
H        2.92460000       0.46810000       0.06230000
