18
Properties=species:S:1:pos:R:3 gdb_110597=T pbc="F F F"
O        0.44530000       0.32450000       0.92970000
C       -0.08230000       0.31650000      -0.40430000
C       -1.45740000      -0.32670000      -0.39810000
N       -1.93810000      -1.05530000      -1.65530000
C       -1.08080000      -2.29900000      -1.30160000
C       -2.28660000      -3.22980000      -1.45850000
C       -2.82470000      -1.97600000      -0.76540000
C       -1.55630000      -1.75800000       0.10380000
O       -1.31620000      -2.24520000       1.36940000
H       -0.06330000       0.96140000       1.44270000
H       -0.10110000       1.32790000      -0.83180000
H        0.62260000      -0.27650000      -0.99340000
H       -2.22150000       0.36520000      -0.01660000
H       -0.06960000      -2.40900000      -1.69410000
H       -2.63240000      -3.39960000      -2.48120000
H       -2.27800000      -4.14950000      -0.87070000
H       -3.84800000      -1.67800000      -0.53030000
H       -0.53200000      -1.77880000       1.68920000
