22
Properties=species:S:1:pos:R:3 gdb_107918=T pbc="F F F"
C        0.03260000       1.47680000       0.20560000
C       -0.11040000      -0.02050000      -0.10060000
C        0.64630000      -0.44330000      -1.32690000
C        0.38110000      -0.05890000      -2.78560000
C        1.39290000      -1.18780000      -3.15030000
C        1.07890000      -1.83950000      -1.74970000
C        2.13930000      -0.89400000      -1.28910000
N        2.72780000      -0.78350000      -2.61830000
C        3.31610000       0.48200000      -3.03310000
H        1.08160000       1.74620000       0.36600000
H       -0.34260000       2.08610000      -0.62340000
H       -0.52990000       1.75270000       1.10280000
H        0.24180000      -0.60690000       0.75870000
H       -1.17420000      -0.26890000      -0.21820000
H       -0.63150000      -0.34960000      -3.08130000
H        0.58210000       0.95990000      -3.13440000
H        1.38160000      -1.66910000      -4.12750000
H        0.79980000      -2.83410000      -1.43330000
H        2.72410000      -0.89460000      -0.37600000
H        4.26910000       0.61530000      -2.50950000
H        3.52930000       0.44420000      -4.10690000
H        2.69690000       1.37080000      -2.83320000
