19
Properties=species:S:1:pos:R:3 gdb_56227=T pbc="F F F"
C        0.81270000       1.10230000      -0.08500000
C       -0.10100000      -0.10760000      -0.00890000
O       -0.87340000      -0.26970000       0.91010000
C        0.00730000      -1.10460000      -1.15110000
C       -0.79160000      -2.38360000      -0.89600000
N       -0.79890000      -3.27080000      -2.05620000
C        0.33060000      -3.99860000      -2.35950000
N        0.13190000      -4.98270000      -3.32220000
O        1.40760000      -3.81330000      -1.82040000
H        1.85590000       0.78280000       0.02240000
H        0.73130000       1.59340000      -1.06080000
H        0.56610000       1.80660000       0.71040000
H       -0.34510000      -0.61160000      -2.06830000
H        1.05850000      -1.35340000      -1.32980000
H       -0.37620000      -2.89780000      -0.02260000
H       -1.82670000      -2.12820000      -0.66160000
H       -1.68440000      -3.69020000      -2.29070000
H       -0.56820000      -4.80990000      -4.02830000
H        1.00100000      -5.33950000      -3.68990000
