19
Properties=species:S:1:pos:R:3 gdb_127061=T pbc="F F F"
C        0.01140000       1.46850000       0.28010000
C       -0.02380000      -0.01900000      -0.02680000
O       -1.34920000      -0.48010000       0.13400000
C       -1.49080000      -1.85940000      -0.14170000
C       -2.93350000      -2.23290000      -0.01620000
N       -3.28770000      -3.38000000       0.55930000
N       -4.63120000      -3.40020000       0.46620000
C       -5.13900000      -2.29850000      -0.13870000
C       -4.06080000      -1.51010000      -0.47250000
H        1.02720000       1.85840000       0.16490000
H       -0.65010000       2.01560000      -0.39770000
H       -0.31910000       1.65590000       1.30560000
H        0.32400000      -0.21130000      -1.05680000
H        0.65520000      -0.56930000       0.64670000
H       -1.12460000      -2.07390000      -1.16180000
H       -0.89470000      -2.47360000       0.55040000
H       -5.13340000      -4.18280000       0.84850000
H       -6.20070000      -2.16560000      -0.27540000
H       -4.07230000      -0.54920000      -0.95870000
