18
Properties=species:S:1:pos:R:3 gdb_94335=T pbc="F F F"
C       -0.30960000       1.41920000       0.09300000
C        0.12610000      -0.02300000      -0.04950000
O        1.37040000      -0.17530000      -0.79590000
C        2.03660000      -0.82210000       0.30410000
C        0.78050000      -0.69460000       1.15750000
N        0.64020000      -0.25570000       2.52910000
C        0.21170000      -1.63620000       2.15920000
C       -1.19390000      -1.92730000       2.20380000
C       -2.36720000      -2.19000000       2.20730000
H        0.46750000       2.01670000       0.57720000
H       -0.52070000       1.84660000      -0.89190000
H       -1.21740000       1.47620000       0.70130000
H       -0.66770000      -0.62920000      -0.50550000
H        2.35340000      -1.84470000       0.06090000
H        2.90690000      -0.25140000       0.65810000
H        1.53370000      -0.29690000       3.01610000
H        0.86080000      -2.45410000       2.46730000
H       -3.40470000      -2.41580000       2.22260000
