19
Properties=species:S:1:pos:R:3 gdb_39006=T pbc="F F F"
C       -0.04160000       1.51670000       0.08510000
C        1.30100000       0.83760000       0.03060000
C        1.94990000       0.46150000       1.37190000
C        1.00150000      -0.55840000       1.98710000
C       -0.02170000      -0.81480000       1.17330000
C       -1.07270000      -1.88370000       1.00470000
C       -1.27530000      -1.85420000      -0.50810000
C       -0.66170000      -0.81750000      -1.09450000
C        0.02670000       0.00840000      -0.07640000
H       -0.40110000       1.91410000       1.03040000
H       -0.33210000       2.09110000      -0.78970000
H        1.93880000       1.03370000      -0.82380000
H        2.94040000       0.01130000       1.22030000
H        2.11000000       1.34270000       2.00760000
H        1.20700000      -1.04040000       2.93620000
H       -0.74930000      -2.86200000       1.37850000
H       -2.01460000      -1.65010000       1.52420000
H       -1.88380000      -2.58990000      -1.02150000
H       -0.70160000      -0.57860000      -2.15080000
