23
Properties=species:S:1:pos:R:3 gdb_58316=T pbc="F F F"
C        0.08960000       1.54460000       0.06490000
C       -0.02010000       0.01840000       0.05310000
O        0.63130000      -0.52960000       1.19940000
C       -1.46920000      -0.50840000      -0.06970000
C       -2.19130000       0.07770000      -1.29270000
C       -1.46960000      -2.04870000      -0.08840000
C       -2.84830000      -2.67810000       0.20150000
C       -2.81340000      -4.13580000       0.19390000
C       -2.75880000      -5.33660000       0.18010000
H        1.12660000       1.83250000       0.25690000
H       -0.21910000       1.98810000      -0.88500000
H       -0.53750000       1.97630000       0.85620000
H        0.55850000      -0.37190000      -0.79500000
H        0.21100000      -0.15160000       1.98020000
H       -2.00210000      -0.17660000       0.83730000
H       -2.32170000       1.16000000      -1.21440000
H       -1.62860000      -0.12840000      -2.21130000
H       -3.18710000      -0.35800000      -1.41510000
H       -1.11420000      -2.40250000      -1.06450000
H       -0.75560000      -2.40970000       0.65550000
H       -3.20810000      -2.32900000       1.17890000
H       -3.58940000      -2.33640000      -0.53170000
H       -2.72020000      -6.39740000       0.17100000
