18
Properties=species:S:1:pos:R:3 gdb_97411=T pbc="F F F"
C        0.10130000       1.36680000       0.08040000
N       -0.11240000      -0.06060000      -0.02770000
C        0.52190000      -0.67460000      -0.92110000
O        0.35170000      -2.00270000      -1.10170000
C        1.20180000      -2.63290000      -2.03450000
C        2.51590000      -3.32990000      -1.51680000
C        1.97640000      -4.62960000      -2.12690000
O        0.75490000      -4.91270000      -1.44560000
C        0.70860000      -3.99010000      -2.53390000
H        0.82660000       1.76970000      -0.64620000
H       -0.85020000       1.89290000      -0.05750000
H        0.45460000       1.60960000       1.08900000
H        1.23490000      -0.20900000      -1.62160000
H        1.42200000      -1.96140000      -2.87380000
H        3.41910000      -2.93340000      -1.98530000
H        2.62930000      -3.36110000      -0.43190000
H        2.51090000      -5.45730000      -2.57580000
H        0.01810000      -4.20320000      -3.34120000
