21
Properties=species:S:1:pos:R:3 gdb_35564=T pbc="F F F"
C       -0.66250000      -1.02130000      -0.95380000
C       -0.41620000       0.07030000      -0.51000000
C       -0.10140000       1.37160000       0.04180000
C       -0.07030000       1.51390000       1.60040000
C        1.34600000       2.15150000       1.52670000
C        2.48390000       1.32510000       2.14200000
C        2.69930000       0.16950000       1.14440000
C        2.48900000       0.82690000      -0.23470000
C        1.39020000       1.87930000      -0.01910000
H       -0.89170000      -1.97960000      -1.34930000
H       -0.76750000       2.11850000      -0.40160000
H       -0.85830000       2.14840000       2.01150000
H       -0.09560000       0.55310000       2.12010000
H        1.37010000       3.20010000       1.82980000
H        3.39250000       1.93670000       2.20430000
H        2.25370000       0.98110000       3.15600000
H        3.68130000      -0.30150000       1.24480000
H        1.94980000      -0.61440000       1.30100000
H        3.40910000       1.33490000      -0.54690000
H        2.23070000       0.10530000      -1.01470000
H        1.51210000       2.74260000      -0.67580000
