12
Properties=species:S:1:pos:R:3 gdb_21891=T pbc="F F F"
O       -0.04930000       1.29990000      -0.24740000
C        0.03120000      -0.02250000      -0.01960000
N        1.18950000      -0.59640000       0.01450000
N        1.17550000      -1.93130000       0.25070000
C        0.05290000      -2.71030000       0.45220000
N        0.16220000      -3.97080000       0.66640000
C       -1.16820000      -1.89730000       0.37940000
N       -1.19390000      -0.62940000       0.15790000
H        0.85370000       1.62630000      -0.35620000
H        2.08130000      -2.37520000       0.27550000
H       -0.75640000      -4.39110000       0.79230000
H       -2.11750000      -2.41310000       0.52410000
