21
Properties=species:S:1:pos:R:3 gdb_53435=T pbc="F F F"
C        0.22610000       1.58320000      -0.22790000
C        0.12080000       0.13490000      -0.11820000
C        0.03630000      -1.06400000      -0.03220000
C       -0.04160000      -2.51070000       0.09080000
C        0.53830000      -3.05440000       1.42160000
O       -0.05600000      -4.32620000       1.57910000
C       -1.42440000      -4.15000000       1.24760000
C       -1.48460000      -3.14530000       0.06680000
C       -2.64450000      -2.15890000       0.19140000
H        1.06420000       1.96720000       0.36440000
H        0.38580000       1.89470000      -1.26620000
H       -0.68400000       2.07800000       0.12930000
H        0.53390000      -2.96370000      -0.72420000
H        1.62320000      -3.17780000       1.40370000
H        0.27090000      -2.38010000       2.25120000
H       -1.84090000      -5.13180000       1.00800000
H       -1.97640000      -3.74240000       2.11140000
H       -1.59370000      -3.69610000      -0.87190000
H       -2.56180000      -1.56090000       1.10470000
H       -2.67290000      -1.46780000      -0.65480000
H       -3.59930000      -2.69520000       0.22510000
