15
Properties=species:S:1:pos:R:3 gdb_97380=T pbc="F F F"
C        0.14030000       1.40060000      -0.15780000
N       -0.02520000      -0.03420000      -0.04310000
C        0.57040000      -0.62250000       0.88500000
O        0.41980000      -1.97440000       1.03400000
C        1.16920000      -2.58460000       2.06380000
C        0.44220000      -3.90180000       2.41650000
O        0.97630000      -4.83460000       2.93760000
C        2.57280000      -2.80660000       1.69060000
N        3.67640000      -2.95450000       1.38580000
H        0.79570000       1.83910000       0.61070000
H        0.55350000       1.63710000      -1.14380000
H       -0.84070000       1.88360000      -0.09720000
H        1.22620000      -0.15760000       1.63570000
H        1.15090000      -1.97090000       2.98010000
H       -0.63400000      -3.86360000       2.15350000
