19
Properties=species:S:1:pos:R:3 gdb_39989=T pbc="F F F"
C        0.03080000       1.50320000       0.00110000
O        1.19040000       0.65990000       0.00430000
C       -0.10000000       0.04520000       0.00800000
C       -0.52620000      -0.82380000       1.19890000
C       -1.08560000      -2.01590000       0.42170000
C       -0.17660000      -2.29920000      -0.82160000
C       -1.42700000      -2.74420000      -1.61510000
C       -1.87270000      -1.49010000      -0.82760000
C       -0.50630000      -0.80700000      -1.16910000
H       -0.13980000       2.06550000       0.91910000
H       -0.13650000       2.06380000      -0.91870000
H        0.33550000      -1.08020000       1.82290000
H       -1.27780000      -0.34240000       1.83320000
H       -1.49110000      -2.86330000       0.97700000
H        0.81490000      -2.75500000      -0.81350000
H       -1.37880000      -2.65130000      -2.70370000
H       -1.88290000      -3.69460000      -1.32190000
H       -2.85370000      -1.01030000      -0.82450000
H       -0.31880000      -0.42930000      -2.17500000
