17
Properties=species:S:1:pos:R:3 gdb_48564=T pbc="F F F"
O       -0.25550000       0.45900000      -0.79040000
C        0.17340000       1.06050000       0.16850000
C        1.35480000       1.94570000       0.14840000
C        1.79890000       2.72130000       1.33880000
C        2.55040000       3.75640000       0.95090000
C        2.77660000       3.67090000      -0.54160000
C        3.69280000       2.40050000      -0.79360000
C        2.42390000       1.57870000      -0.95430000
C        1.59360000       2.80690000      -1.09060000
H       -0.32310000       0.97860000       1.16200000
H        1.56060000       2.43530000       2.35610000
H        3.06920000       4.45350000       1.59720000
H        3.05710000       4.58750000      -1.05740000
H        4.20150000       2.47950000      -1.75760000
H        4.41130000       2.13800000      -0.01150000
H        2.30280000       0.62150000      -1.44470000
H        0.80750000       3.06060000      -1.79100000
