13
Properties=species:S:1:pos:R:3 gdb_5437=T pbc="F F F"
C        0.12750000       1.49740000       0.07870000
C       -0.02500000       0.02450000       0.05250000
C       -1.09660000      -0.81930000      -0.03380000
N       -0.63760000      -2.14400000      -0.01470000
C        0.64070000      -2.02870000       0.07880000
O        1.09730000      -0.75100000       0.12530000
C       -2.46360000      -0.47230000      -0.12870000
C       -3.62300000      -0.15860000      -0.20890000
H        0.73750000       1.85130000      -0.75970000
H       -0.85860000       1.96110000       0.01200000
H        0.60960000       1.83320000       1.00350000
H        1.38370000      -2.80930000       0.12430000
H       -4.64850000       0.10750000      -0.28000000
