19
Properties=species:S:1:pos:R:3 gdb_68245=T pbc="F F F"
C        0.00770000       1.47110000       0.20060000
C        0.03060000      -0.01680000       0.00800000
C        0.86830000      -0.78650000      -1.05440000
C        0.76390000      -1.84520000       0.06930000
O        0.76670000      -0.76000000       1.03950000
C       -0.72510000      -2.24260000       0.01860000
C       -1.47580000      -2.30480000       1.36540000
O       -1.97170000      -0.95230000       1.20900000
C       -1.30400000      -0.80470000      -0.05210000
H        1.02090000       1.87230000       0.28780000
H       -0.49030000       1.95760000      -0.64460000
H       -0.54580000       1.71640000       1.11230000
H        0.42710000      -1.00000000      -2.03290000
H        1.87480000      -0.37750000      -1.14990000
H        1.52030000      -2.60750000       0.25550000
H       -0.98340000      -2.97780000      -0.74290000
H       -2.30070000      -3.02590000       1.40090000
H       -0.84760000      -2.40780000       2.25580000
H       -1.97570000      -0.48810000      -0.85640000
