18
Properties=species:S:1:pos:R:3 gdb_79805=T pbc="F F F"
C       -0.19250000       1.58610000      -0.02180000
C        0.02390000       0.07960000       0.02560000
C        1.19010000      -0.60890000      -0.73970000
C        2.14810000      -0.10030000       0.37310000
O        3.35970000      -0.82500000       0.57620000
C        3.18830000      -2.16490000       0.55920000
N        2.08210000      -2.75540000       0.38380000
C        0.96940000      -1.85000000       0.19520000
C        0.88530000      -0.59370000       1.13220000
H        0.72220000       2.16640000       0.12360000
H       -0.61720000       1.87840000      -0.98820000
H       -0.90290000       1.89220000       0.75360000
H       -0.92970000      -0.43870000      -0.12550000
H        1.38080000      -0.62970000      -1.81270000
H        2.42380000       0.95050000       0.40940000
H        4.12410000      -2.69470000       0.71590000
H        0.03790000      -2.39910000       0.04800000
H        0.72560000      -0.59720000       2.21050000
