16
Properties=species:S:1:pos:R:3 gdb_43377=T pbc="F F F"
O       -0.09720000      -0.05270000      -0.43990000
C       -0.10100000       1.13970000      -0.20800000
C       -1.25720000       2.07590000      -0.10400000
C       -0.81430000       3.30040000       0.18350000
C        0.68700000       3.29900000       0.29480000
N        1.01990000       1.92140000       0.01660000
C        2.35460000       1.36600000       0.07190000
C        3.00230000       1.54050000       1.37320000
C        3.53320000       1.71060000       2.43760000
H       -2.27500000       1.74330000      -0.24710000
H       -1.40120000       4.19830000       0.32510000
H        1.14970000       3.98860000      -0.42800000
H        1.02680000       3.60530000       1.29460000
H        2.23880000       0.30150000      -0.16200000
H        2.98900000       1.80540000      -0.71120000
H        4.00500000       1.83980000       3.38040000
