13
Properties=species:S:1:pos:R:3 gdb_132386=T pbc="F F F"
N       -0.01350000       1.36940000      -0.05610000
C       -0.02230000       0.00890000      -0.03240000
C       -1.22140000      -0.72570000      -0.00190000
C       -1.05980000      -2.09510000      -0.02020000
F       -2.13530000      -2.86880000       0.00710000
N        0.09910000      -2.72500000      -0.06280000
C        1.16250000      -1.91220000      -0.08730000
O        2.36300000      -2.50460000      -0.12880000
N        1.17870000      -0.58950000      -0.07160000
H        0.87670000       1.81450000       0.09690000
H       -0.83960000       1.87830000       0.20580000
H       -2.19960000      -0.26700000       0.02740000
H        2.19320000      -3.45630000      -0.13300000
