20
Properties=species:S:1:pos:R:3 gdb_119802=T pbc="F F F"
O       -0.18160000       1.46600000      -0.08750000
C       -0.01400000       0.05880000      -0.15050000
C       -1.36570000      -0.57590000       0.18860000
C       -1.34790000      -2.07370000       0.15430000
C       -1.59690000      -2.91700000       1.16080000
C       -1.56810000      -4.32820000       0.69050000
C       -2.58290000      -4.67600000      -0.34610000
N       -1.22530000      -4.30050000      -0.75360000
C       -1.06350000      -2.87400000      -1.10970000
H        0.66200000       1.87950000      -0.29190000
H        0.31210000      -0.25830000      -1.15350000
H        0.74480000      -0.29090000       0.56700000
H       -1.67270000      -0.22250000       1.17830000
H       -2.10150000      -0.18670000      -0.52830000
H       -1.82050000      -2.63400000       2.18270000
H       -1.11310000      -5.10400000       1.30120000
H       -2.83540000      -5.71480000      -0.54320000
H       -3.39270000      -3.96530000      -0.50070000
H       -1.73530000      -2.60490000      -1.93590000
H       -0.03990000      -2.71440000      -1.47490000
