17
Properties=species:S:1:pos:R:3 gdb_93181=T pbc="F F F"
C       -0.14130000       1.47120000       0.08110000
C       -0.02600000      -0.03350000      -0.08550000
C        0.87020000      -0.45820000      -1.23810000
N        0.96280000      -1.90410000      -1.23020000
C        1.24990000      -2.56570000      -0.05980000
N        1.66920000      -3.76790000      -0.04590000
C        1.01930000      -1.78760000       1.23620000
O        1.32060000      -2.25420000       2.30050000
O        0.49660000      -0.54690000       1.16440000
H        0.84520000       1.92280000       0.21950000
H       -0.61140000       1.91490000      -0.80140000
H       -0.75250000       1.70630000       0.95530000
H       -1.01800000      -0.47950000      -0.23130000
H        0.42090000      -0.13360000      -2.18110000
H        1.85070000       0.03680000      -1.14480000
H        1.30130000      -2.37070000      -2.05960000
H        1.77980000      -4.05900000       0.92620000
