18
Properties=species:S:1:pos:R:3 gdb_110807=T pbc="F F F"
C       -0.09700000       1.56020000      -0.19320000
C        0.00550000       0.08130000       0.19940000
C       -1.34260000      -0.60830000       0.14670000
C       -1.90590000      -1.28330000      -1.06060000
O       -0.87560000      -1.94530000      -1.81940000
C       -0.65520000      -2.87050000      -0.72860000
C        0.75060000      -3.03390000      -0.34310000
N        1.84870000      -3.20280000      -0.02510000
C       -1.61570000      -2.10390000       0.18310000
H        0.88220000       2.04520000      -0.14540000
H       -0.47700000       1.67090000      -1.21400000
H       -0.77250000       2.10570000       0.47540000
H        0.70580000      -0.42390000      -0.47030000
H        0.41880000      -0.00980000       1.21060000
H       -2.12550000      -0.09020000       0.70170000
H       -2.82300000      -1.04340000      -1.58480000
H       -1.05420000      -3.85660000      -0.99560000
H       -2.27670000      -2.57520000       0.89680000
