18
Properties=species:S:1:pos:R:3 gdb_133748=T pbc="F F F"
C       -0.08200000       1.35480000       0.13380000
O        0.02880000      -0.04130000      -0.04040000
C        0.69090000      -0.50750000      -1.20930000
C       -0.05000000      -0.11370000      -2.49540000
C        2.16890000      -0.09230000      -1.24720000
C        0.61130000      -2.03910000      -1.04140000
F       -0.65380000      -2.46700000      -0.98840000
F        1.20230000      -2.65760000      -2.08170000
F        1.22940000      -2.44880000       0.07060000
H        0.89580000       1.84940000       0.20720000
H       -0.65960000       1.83510000      -0.66730000
H       -0.61360000       1.50050000       1.07690000
H        0.04030000       0.95930000      -2.68000000
H        0.37480000      -0.63770000      -3.35470000
H       -1.10830000      -0.37140000      -2.41570000
H        2.65370000      -0.33420000      -0.29900000
H        2.69040000      -0.61620000      -2.05150000
H        2.26410000       0.98060000      -1.43020000
