25
Properties=species:S:1:pos:R:3 gdb_60343=T pbc="F F F"
C        0.07930000       1.57270000      -0.03850000
C        0.03310000       0.04470000      -0.00780000
O        0.83220000      -0.47080000       1.05850000
C       -1.40090000      -0.49520000       0.04950000
C       -1.46670000      -2.02470000       0.01530000
C       -2.88900000      -2.61870000      -0.07760000
C       -2.80510000      -4.14780000      -0.18880000
C       -3.76450000      -2.22300000       1.11500000
O       -3.56950000      -2.09180000      -1.22730000
H        1.11550000       1.92130000      -0.05700000
H       -0.43860000       1.96850000      -0.91810000
H       -0.40770000       1.99380000       0.85030000
H        0.51950000      -0.34280000      -0.91280000
H        0.47380000      -0.11940000       1.88160000
H       -1.87610000      -0.11180000       0.96370000
H       -1.97880000      -0.09000000      -0.78880000
H       -0.89770000      -2.38190000      -0.85630000
H       -0.95280000      -2.43490000       0.89140000
H       -2.34540000      -4.58860000       0.70170000
H       -3.80490000      -4.57410000      -0.31150000
H       -2.19810000      -4.44260000      -1.05350000
H       -3.92310000      -1.14250000       1.14230000
H       -4.74440000      -2.70210000       1.03550000
H       -3.30180000      -2.53310000       2.05670000
H       -3.09530000      -2.39390000      -2.00970000
