21
Properties=species:S:1:pos:R:3 gdb_108479=T pbc="F F F"
C       -0.16990000       1.39290000      -0.35340000
C       -0.07580000      -0.13270000      -0.21570000
C        0.77010000      -0.75310000      -1.29830000
O        0.21600000      -0.57090000      -2.62710000
C        0.33470000      -1.98680000      -2.92760000
C        1.03640000      -2.24660000      -1.59020000
O        2.45400000      -2.03020000      -1.65100000
C        2.31810000      -0.62260000      -1.28460000
C        3.00110000       0.31220000      -2.25710000
H        0.81070000       1.86660000      -0.23860000
H       -0.56210000       1.66310000      -1.33760000
H       -0.83340000       1.81310000       0.40770000
H        0.34500000      -0.40340000       0.76050000
H       -1.08020000      -0.56970000      -0.26310000
H       -0.65430000      -2.45090000      -3.03450000
H        0.94210000      -2.18300000      -3.81700000
H        0.75210000      -3.10400000      -0.97680000
H        2.70130000      -0.47670000      -0.26380000
H        2.51880000       0.26520000      -3.23580000
H        2.95600000       1.34440000      -1.89380000
H        4.05410000       0.03380000      -2.36220000
