20
Properties=species:S:1:pos:R:3 gdb_38769=T pbc="F F F"
C       -0.00060000       1.54370000      -0.01520000
C        1.30230000       0.78220000      -0.00330000
C        2.17100000       0.77790000       1.24230000
C        2.68880000      -0.61380000       1.55000000
N        2.60780000      -1.05370000       2.95540000
C        1.73160000      -1.68140000       1.93320000
C        0.26600000      -1.44390000       2.05120000
C       -0.47950000      -0.71390000       1.21790000
C       -0.00610000       0.02620000       0.01450000
H       -0.27640000       2.06350000       0.89720000
H       -0.31440000       2.04180000      -0.92620000
H        1.84760000       0.74920000      -0.94330000
H        3.00390000       1.48250000       1.13040000
H        1.59140000       1.11460000       2.10540000
H        3.55900000      -0.93130000       0.97680000
H        3.37970000      -1.67940000       3.17320000
H        1.99640000      -2.69940000       1.64510000
H       -0.21980000      -1.93700000       2.89200000
H       -1.55050000      -0.65240000       1.41150000
H       -0.29960000      -0.43570000      -0.92700000
