19
Properties=species:S:1:pos:R:3 gdb_65287=T pbc="F F F"
C       -0.12950000       1.53000000       0.12080000
C       -0.03740000       0.01800000       0.10050000
N        1.26930000      -0.55040000      -0.32280000
C        0.83890000      -0.75010000       1.04890000
C        1.54610000      -0.20880000       2.29670000
C        0.89780000      -1.37420000       3.10270000
C        0.48520000      -2.05880000       1.76460000
C       -1.22910000      -0.66760000      -0.34760000
N       -2.18260000      -1.21900000      -0.70350000
H        0.82250000       1.94900000       0.45180000
H       -0.34370000       1.91540000      -0.88020000
H       -0.92250000       1.86540000       0.79590000
H        1.13300000      -1.39720000      -0.87210000
H        2.63250000      -0.29860000       2.20970000
H        1.30290000       0.80940000       2.60800000
H        1.56370000      -1.94320000       3.75280000
H        0.03350000      -1.04880000       3.68530000
H       -0.54390000      -2.41260000       1.66950000
H        1.16330000      -2.87060000       1.48270000
