18
Properties=species:S:1:pos:R:3 gdb_76510=T pbc="F F F"
O        0.10720000       1.36160000      -0.04280000
C        0.03220000      -0.03260000      -0.05060000
C       -0.48770000      -0.71900000       1.20160000
O       -0.91890000       0.12900000       2.23780000
C       -1.32270000      -0.69060000      -0.03620000
C       -2.69880000      -0.04590000      -0.19510000
C       -3.03960000      -1.28290000      -1.03010000
C       -2.06350000      -1.49010000      -2.11620000
N       -1.69050000      -1.93970000      -0.75540000
H       -0.28640000       1.64250000       0.79540000
H        0.84010000      -0.49380000      -0.61180000
H       -0.06870000      -1.67620000       1.50590000
H       -0.18170000       0.24820000       2.84700000
H       -3.24630000       0.00960000       0.74770000
H       -2.74700000       0.92190000      -0.70200000
H       -3.96140000      -1.85040000      -0.96000000
H       -2.23530000      -2.31810000      -2.79700000
H       -1.53930000      -0.63980000      -2.54710000
