20
Properties=species:S:1:pos:R:3 gdb_40116=T pbc="F F F"
C       -0.43460000       1.39860000       0.25160000
C        0.98630000       1.10340000      -0.16090000
C        0.00690000      -0.02480000       0.00220000
C        0.07070000      -1.00160000       1.18630000
C       -0.80770000      -2.14270000       0.72790000
C       -1.13780000      -2.03760000      -0.55850000
C       -0.53900000      -0.82310000      -1.17760000
C       -0.98720000      -0.21040000      -2.45130000
N        0.22700000      -1.04360000      -2.43290000
H       -0.61960000       1.69600000       1.27910000
H       -1.08780000       1.87140000      -0.47330000
H        1.28820000       1.38710000      -1.16580000
H        1.77610000       1.20500000       0.57630000
H        1.09400000      -1.35510000       1.38050000
H       -0.28050000      -0.54170000       2.11750000
H       -1.08850000      -2.95940000       1.38310000
H       -1.71910000      -2.74780000      -1.13400000
H       -1.82800000      -0.63310000      -2.99610000
H       -0.88090000       0.86620000      -2.56870000
H        1.05170000      -0.44660000      -2.42880000
