16
Properties=species:S:1:pos:R:3 gdb_9236=T pbc="F F F"
C        0.01630000       1.57110000      -0.00750000
C       -0.00460000       0.02980000       0.04690000
C        0.75840000      -0.50550000       1.27290000
O        2.10520000      -0.08160000       1.14890000
C       -1.36480000      -0.49350000       0.03530000
C       -2.49640000      -0.92420000       0.03510000
C       -3.76960000      -1.40490000       0.03680000
C       -4.89900000      -1.83280000       0.03820000
H        1.05000000       1.92110000       0.01490000
H       -0.46620000       1.93320000      -0.91840000
H       -0.51650000       1.99180000       0.85090000
H        0.52210000      -0.35370000      -0.83830000
H        0.29000000      -0.11300000       2.18850000
H        0.68000000      -1.60190000       1.29850000
H        2.58590000      -0.36610000       1.93130000
H       -5.89230000      -2.20700000       0.03920000
