15
Properties=species:S:1:pos:R:3 gdb_42767=T pbc="F F F"
O       -0.01740000      -0.02730000      -0.15430000
C       -0.03370000       1.14280000       0.05620000
C       -1.04700000       2.30220000       0.03670000
C       -0.80740000       2.99900000       1.38400000
C        0.75900000       3.00840000       1.39450000
C        1.01160000       2.31660000       0.03750000
N       -0.02370000       3.01470000      -0.82980000
C        2.35670000       2.17350000      -0.45280000
N        3.43470000       2.03100000      -0.84530000
H       -2.05930000       2.19700000      -0.34580000
H       -1.22030000       4.00890000       1.37770000
H       -1.23840000       2.44260000       2.21890000
H        1.17140000       4.01810000       1.39250000
H        1.19500000       2.44530000       2.22160000
H       -0.01190000       2.58860000      -1.75800000
