18
Properties=species:S:1:pos:R:3 gdb_90625=T pbc="F F F"
C       -0.06690000       1.56620000       0.07840000
C        0.03250000       0.05290000      -0.05680000
C       -1.05360000      -0.64240000       0.60200000
C       -1.98240000      -1.18140000       1.14160000
C        0.57950000      -0.66780000      -1.24580000
C        1.73950000       0.04110000      -1.92360000
O        1.40350000       1.20680000      -2.64380000
C        2.40220000       0.12710000      -0.51670000
N        1.30920000      -0.71110000       0.09260000
H        0.60030000       2.09230000      -0.60110000
H       -1.08910000       1.87370000      -0.15720000
H        0.14160000       1.86430000       1.11130000
H       -2.79320000      -1.66740000       1.62500000
H        0.06860000      -1.53780000      -1.64500000
H        2.28750000      -0.66440000      -2.56050000
H        2.18100000       1.49750000      -3.13090000
H        3.35200000      -0.40600000      -0.43980000
H        2.51200000       1.12390000      -0.08380000
