17
Properties=species:S:1:pos:R:3 gdb_9930=T pbc="F F F"
C       -0.13020000       1.55010000       0.03460000
C        0.01840000       0.04540000       0.02340000
C        1.32890000      -0.64980000      -0.26800000
N        2.50700000       0.15660000      -0.42330000
C        0.74040000      -0.66480000       1.16190000
N        1.36010000       0.13640000       2.19930000
C        0.18390000      -1.90950000       1.62140000
N       -0.25080000      -2.92020000       1.98080000
H        0.75540000       2.04720000       0.43140000
H       -0.30940000       1.92520000      -0.97900000
H       -0.98230000       1.84150000       0.65550000
H       -0.85100000      -0.48580000      -0.35270000
H        1.26430000      -1.58500000      -0.82330000
H        3.34070000      -0.42020000      -0.44770000
H        2.47820000       0.69160000      -1.28480000
H        1.76130000      -0.47990000       2.89980000
H        2.13780000       0.63300000       1.76510000
