19
Properties=species:S:1:pos:R:3 gdb_62966=T pbc="F F F"
C       -0.04900000       1.55200000      -0.08230000
C        0.00600000       0.03710000       0.01020000
O       -1.27380000      -0.56090000      -0.09420000
C        1.06350000      -0.67090000      -0.89170000
O        2.35190000      -0.18810000      -0.50300000
C        1.74490000      -1.23800000       0.27860000
C        0.75660000      -0.59010000       1.22200000
C        0.98190000      -0.03700000       2.59600000
C        0.08730000      -1.23860000       2.39290000
H        0.95860000       1.96960000      -0.02870000
H       -0.50100000       1.86830000      -1.03140000
H       -0.65030000       1.96660000       0.73320000
H       -1.73040000      -0.15030000      -0.83690000
H        0.93660000      -1.05440000      -1.89860000
H        2.30740000      -2.15710000       0.39600000
H        1.95500000      -0.18420000       3.05310000
H        0.51280000       0.90980000       2.84460000
H       -0.98520000      -1.10810000       2.48020000
H        0.45010000      -2.21010000       2.71340000
