16
Properties=species:S:1:pos:R:3 gdb_17954=T pbc="F F F"
C        0.00990000       1.40310000       0.22290000
C        1.15830000       2.08910000       0.21590000
C        2.50330000       1.58990000      -0.10760000
C        2.89020000       0.93090000      -1.20560000
C        2.06590000       0.54290000      -2.36010000
C        0.91760000      -0.14340000      -2.35290000
C        0.19600000      -0.67880000      -1.18860000
C       -0.19110000      -0.01960000      -0.09070000
H       -0.88330000       1.92370000       0.56840000
H        1.12650000       3.12420000       0.55610000
H        3.27530000       1.86200000       0.61230000
H        3.95230000       0.70880000      -1.30940000
H        2.49580000       0.79120000      -3.33050000
H        0.48620000      -0.40970000      -3.31780000
H       -0.11260000      -1.71990000      -1.28350000
H       -0.79000000      -0.56630000       0.63770000
