18
Properties=species:S:1:pos:R:3 gdb_105620=T pbc="F F F"
C       -0.43150000       1.40120000      -0.09930000
C        0.08990000      -0.02730000      -0.07200000
C        1.49910000      -0.33340000      -0.62280000
O        1.86770000      -1.04860000       0.58400000
C        0.64690000      -0.64230000       1.25620000
C        1.01540000       0.29850000       2.41020000
O        1.89810000      -0.34910000       3.29370000
C       -0.10000000      -1.80660000       1.75080000
N       -0.73320000      -2.70380000       2.11010000
H        0.29900000       2.11920000       0.28370000
H       -0.66910000       1.68950000      -1.12830000
H       -1.34930000       1.49980000       0.48870000
H       -0.65390000      -0.70020000      -0.50300000
H        1.55620000      -0.97780000      -1.50480000
H        2.13250000       0.54910000      -0.77610000
H        1.45930000       1.21080000       1.98600000
H        0.12600000       0.58130000       2.98130000
H        2.62710000      -0.68290000       2.75510000
