21
Properties=species:S:1:pos:R:3 gdb_72580=T pbc="F F F"
C       -0.36930000       1.50550000       0.11280000
C        0.00580000       0.04610000      -0.02140000
C        1.15400000      -0.33700000      -0.99150000
C        1.79220000      -1.24810000       0.09400000
C        0.71620000      -0.79530000       1.13980000
C        1.19460000      -0.27450000       2.47680000
C       -0.48320000      -1.74270000       1.11440000
O       -0.80580000      -2.67590000       1.79460000
C       -1.16550000      -0.98400000      -0.03800000
H        0.51080000       2.12850000       0.30630000
H       -0.83820000       1.87460000      -0.80750000
H       -1.08000000       1.66670000       0.93140000
H        0.84890000      -0.82400000      -1.92210000
H        1.78870000       0.51530000      -1.24920000
H        1.80820000      -2.31930000      -0.12230000
H        2.80190000      -0.94960000       0.38650000
H        1.97370000       0.48560000       2.35280000
H        0.37750000       0.16790000       3.05630000
H        1.61410000      -1.09270000       3.07240000
H       -2.12800000      -0.56470000       0.27580000
H       -1.32520000      -1.55040000      -0.96080000
