21
Properties=species:S:1:pos:R:3 gdb_110998=T pbc="F F F"
C       -0.43440000       1.39950000       0.07720000
C       -0.18030000      -0.07480000      -0.05040000
C        0.39310000      -0.79130000      -1.30180000
C       -0.08570000      -2.04780000      -0.50970000
C        0.83730000      -1.93810000       0.70970000
O        0.70540000      -0.53140000       1.00360000
C       -1.29410000      -1.16670000      -0.05180000
C       -2.06820000      -1.44580000       1.21820000
O       -3.06930000      -0.43610000       1.32140000
H        0.50740000       1.95680000       0.05970000
H       -1.06460000       1.74920000      -0.74510000
H       -0.95170000       1.61310000       1.01650000
H       -0.18780000      -0.61020000      -2.20750000
H        1.46390000      -0.68040000      -1.49180000
H       -0.21000000      -3.02760000      -0.96970000
H        0.51860000      -2.53850000       1.56990000
H        1.88160000      -2.18240000       0.47990000
H       -1.99470000      -1.01170000      -0.87660000
H       -2.52140000      -2.45020000       1.17190000
H       -1.39460000      -1.41650000       2.08480000
H       -3.49740000      -0.52650000       2.17760000
