16
Properties=species:S:1:pos:R:3 gdb_34499=T pbc="F F F"
N        0.01310000      -1.13970000       0.05250000
C       -0.02870000       0.01800000       0.04110000
C       -0.03510000       1.43890000       0.03320000
C       -1.12020000       2.21380000      -0.10480000
C       -0.75090000       3.64930000      -0.09420000
C       -1.46590000       4.66440000      -0.89000000
O       -1.64930000       4.57900000       0.52210000
C        0.73540000       3.71110000       0.27220000
C        1.24530000       2.25260000       0.15110000
H       -2.13960000       1.86860000      -0.22070000
H       -0.91630000       5.53690000      -1.24220000
H       -2.32690000       4.38140000      -1.49480000
H        1.29440000       4.40360000      -0.36030000
H        0.81690000       4.06650000       1.30340000
H        1.84810000       1.93690000       1.00760000
H        1.86670000       2.10690000      -0.73970000
