15
Properties=species:S:1:pos:R:3 gdb_48100=T pbc="F F F"
N        0.29640000       1.41010000      -0.62370000
C        0.20750000       0.25530000      -0.08800000
C       -1.15520000      -0.38930000      -0.14260000
O       -1.40380000      -1.50090000       0.24800000
N        1.17700000      -0.43820000       0.62550000
C        1.56640000      -1.80470000       0.36680000
C        2.55140000      -0.67590000       0.17310000
C        2.96290000      -0.29740000      -1.15060000
C        3.31550000       0.04400000      -2.24810000
H        1.24870000       1.77730000      -0.57110000
H       -1.90780000       0.27920000      -0.60430000
H        1.65810000      -2.44550000       1.23850000
H        1.18900000      -2.28480000      -0.53030000
H        3.29490000      -0.51500000       0.95020000
H        3.62420000       0.33290000      -3.22280000
