29
Properties=species:S:1:pos:R:3 gdb_118466=T pbc="F F F"
C       -1.32240000       0.23180000       2.61570000
C       -0.71720000      -0.66060000       1.52680000
C       -1.69880000      -1.73750000       1.04530000
C       -1.14910000      -2.83610000       0.10810000
C       -2.22490000      -3.93450000      -0.06890000
C       -1.68960000      -5.29010000      -0.54290000
C       -0.62040000      -2.34670000      -1.27580000
C       -1.51200000      -1.28450000      -1.93760000
C        0.84840000      -1.89330000      -1.24360000
H       -0.61330000       0.99730000       2.94660000
H       -2.22020000       0.74510000       2.25290000
H       -1.61270000      -0.35640000       3.49350000
H       -0.39790000      -0.03030000       0.68980000
H        0.19230000      -1.14090000       1.91130000
H       -2.09820000      -2.24270000       1.93530000
H       -2.56470000      -1.25130000       0.57570000
H       -0.29900000      -3.30490000       0.62710000
H       -2.73620000      -4.08340000       0.89000000
H       -2.99740000      -3.58020000      -0.76470000
H       -2.49930000      -6.02230000      -0.62600000
H       -1.20600000      -5.22880000      -1.52300000
H       -0.95270000      -5.68920000       0.16350000
H       -0.64370000      -3.22400000      -1.93500000
H       -1.47630000      -0.32840000      -1.40470000
H       -1.18170000      -1.09650000      -2.96470000
H       -2.55940000      -1.60030000      -1.98310000
H        1.49310000      -2.67780000      -0.83290000
H        1.20370000      -1.66760000      -2.25530000
H        0.99490000      -0.99470000      -0.63810000
