19
Properties=species:S:1:pos:R:3 gdb_106511=T pbc="F F F"
O        0.01350000       1.39200000      -0.22360000
C        0.04560000       0.01180000       0.09290000
C       -1.34980000      -0.56320000       0.14990000
C       -1.59530000      -2.09210000       0.16000000
C       -2.74770000      -1.68910000      -0.78610000
C       -3.99670000      -1.23630000      -0.01460000
C       -3.57970000      -0.23950000       1.04770000
C       -2.29440000       0.09910000       1.13900000
O       -1.99280000      -0.50430000      -1.17720000
H       -0.51090000       1.47480000      -1.02890000
H        0.63990000      -0.55870000      -0.63690000
H        0.53060000      -0.07890000       1.07170000
H       -0.81390000      -2.63890000      -0.37240000
H       -1.83010000      -2.56910000       1.11260000
H       -2.97980000      -2.32950000      -1.64090000
H       -4.71790000      -0.78060000      -0.70590000
H       -4.50180000      -2.10280000       0.43350000
H       -4.34020000       0.18470000       1.69660000
H       -1.91060000       0.81140000       1.86040000
