17
Properties=species:S:1:pos:R:3 gdb_28153=T pbc="F F F"
C       -0.02080000       1.45090000       0.07540000
C       -0.00050000      -0.04070000      -0.02070000
C       -0.03600000      -0.79720000      -1.14080000
C        0.00340000      -2.21480000      -0.77110000
C        0.06270000      -2.27810000       0.58680000
C        0.06790000      -0.93260000       1.22690000
O        0.10300000      -3.54740000       1.03890000
C        0.06740000      -4.33060000      -0.09040000
C        0.00620000      -3.57380000      -1.22490000
H        0.87610000       1.83990000       0.57510000
H       -0.07360000       1.90600000      -0.91770000
H       -0.88090000       1.81080000       0.65510000
H       -0.08580000      -0.40830000      -2.15040000
H        0.97120000      -0.72950000       1.81690000
H       -0.78790000      -0.75870000       1.89230000
H        0.09260000      -5.39260000       0.08820000
H       -0.03090000      -3.95570000      -2.23330000
