14
Properties=species:S:1:pos:R:3 gdb_27038=T pbc="F F F"
C        0.15270000       1.49260000       0.06640000
C       -0.02640000       0.02410000       0.03750000
C       -1.09590000      -0.78950000      -0.06950000
O       -0.65030000      -2.10440000      -0.03900000
C        0.70890000      -2.06640000       0.08850000
N        1.53210000      -3.00630000       0.15750000
O        1.09840000      -0.74310000       0.13620000
C       -2.51000000      -0.49680000      -0.19960000
O       -3.38390000      -1.32880000      -0.28910000
H        0.79890000       1.81270000      -0.75780000
H       -0.80700000       2.00350000      -0.01860000
H        0.63560000       1.79830000       1.00060000
H        1.06160000      -3.90610000       0.10580000
H       -2.72900000       0.59230000      -0.21050000
