18
Properties=species:S:1:pos:R:3 gdb_5270=T pbc="F F F"
C       -0.01330000       1.55660000       0.04420000
C        0.06490000       0.02830000       0.04190000
C        0.66190000      -0.51710000      -1.26140000
N        0.74120000      -1.96850000      -1.29610000
C        1.65520000      -2.76350000      -0.63700000
C        1.29870000      -4.05510000      -0.92410000
N        0.19090000      -4.08130000      -1.73830000
C       -0.11360000      -2.81860000      -1.93620000
H        0.97870000       2.00730000      -0.07100000
H       -0.64140000       1.92500000      -0.77440000
H       -0.43900000       1.92610000       0.98110000
H        0.67260000      -0.31940000       0.88520000
H       -0.93260000      -0.40460000       0.17960000
H        0.05350000      -0.20110000      -2.11520000
H        1.66660000      -0.10790000      -1.41770000
H        2.45360000      -2.33890000      -0.05040000
H        1.77950000      -4.96480000      -0.59740000
H       -0.93300000      -2.44920000      -2.53620000
