21
Properties=species:S:1:pos:R:3 gdb_116329=T pbc="F F F"
C        0.04890000       1.34950000      -0.11340000
O        0.00620000      -0.04040000       0.11140000
C       -1.29630000      -0.60470000       0.06390000
C       -1.87690000      -0.67260000      -1.36040000
C       -3.06840000      -1.62870000      -1.38920000
O       -2.66060000      -2.95930000      -1.11390000
C       -1.99440000      -3.12370000       0.10640000
C       -0.49110000      -3.12590000       0.08950000
C       -1.23750000      -1.96790000       0.71840000
H        1.07880000       1.67140000       0.06080000
H       -0.23060000       1.62390000      -1.14130000
H       -0.61280000       1.89490000       0.57890000
H       -1.97540000       0.02280000       0.66870000
H       -2.18840000       0.32220000      -1.69540000
H       -1.10950000      -1.03200000      -2.05510000
H       -3.83780000      -1.29960000      -0.67070000
H       -3.52790000      -1.65900000      -2.38110000
H       -2.51340000      -3.80810000       0.77370000
H        0.04600000      -3.80000000       0.74730000
H       -0.02350000      -2.96320000      -0.87470000
H       -1.21730000      -1.93150000       1.80310000
