13
Properties=species:S:1:pos:R:3 gdb_132886=T pbc="F F F"
O        0.04240000       1.36050000       0.27970000
C       -0.01090000       0.02520000       0.04560000
C       -1.18840000      -0.63750000      -0.05110000
N       -1.16140000      -1.99440000      -0.29050000
C       -0.00720000      -2.74470000      -0.44210000
N       -0.05920000      -4.00730000      -0.66360000
C        1.17490000      -1.88500000      -0.31070000
F        2.33290000      -2.51660000      -0.44150000
N        1.18750000      -0.62790000      -0.08960000
H        0.97770000       1.59620000       0.30570000
H       -2.15380000      -0.16460000       0.04850000
H       -2.02400000      -2.51280000      -0.36720000
H        0.88200000      -4.38360000      -0.74580000
