19
Properties=species:S:1:pos:R:3 gdb_18157=T pbc="F F F"
C       -0.08860000       1.53840000       0.33450000
C        0.05500000       0.07280000      -0.00830000
C        0.54680000      -0.55270000      -1.25800000
C        1.73600000       0.13440000      -1.92760000
C        1.54920000       1.39930000      -2.74650000
O        2.83120000       1.76990000      -3.23700000
C        2.40880000       0.13770000      -0.53160000
N        1.30690000      -0.70580000       0.06730000
H       -1.04540000       1.91640000      -0.04170000
H       -0.08580000       1.66750000       1.42260000
H        0.70050000       2.16860000      -0.07520000
H       -0.74020000      -0.52050000       0.44400000
H        0.01990000      -1.39540000      -1.69850000
H        2.25410000      -0.58510000      -2.56880000
H        0.84700000       1.19220000      -3.57170000
H        1.10990000       2.20670000      -2.14430000
H        2.74000000       2.58680000      -3.73590000
H        3.35080000      -0.41040000      -0.49170000
H        2.55240000       1.10840000      -0.04830000
