20
Properties=species:S:1:pos:R:3 gdb_38150=T pbc="F F F"
C       -0.05730000       1.51590000       0.21850000
C        1.37850000       2.06370000       0.08070000
C        2.25900000       0.85340000       0.46920000
C        3.62040000       0.73580000      -0.17810000
C        3.67360000      -0.27290000      -1.05510000
C        2.37310000      -1.00180000      -1.10070000
N        2.00520000      -1.65870000       0.19850000
C        1.47650000      -0.32640000      -0.12270000
C        0.01030000       0.05280000      -0.29680000
H       -0.34760000       1.51840000       1.27530000
H       -0.79450000       2.11800000      -0.31920000
H        1.57920000       2.34020000      -0.96120000
H        1.55790000       2.94850000       0.69750000
H        2.32840000       0.77910000       1.56210000
H        4.44840000       1.38920000       0.07510000
H        4.53630000      -0.55070000      -1.64940000
H        2.00630000      -1.45190000      -2.01790000
H        1.27580000      -2.34440000       0.00010000
H       -0.65470000      -0.60570000       0.27200000
H       -0.29550000      -0.01100000      -1.34690000
