20
Properties=species:S:1:pos:R:3 gdb_99911=T pbc="F F F"
C       -0.14380000       1.44920000      -0.01300000
O       -0.05390000       0.03410000      -0.04200000
C        0.67320000      -0.54640000      -1.11680000
C        0.06540000      -0.20760000      -2.49200000
C        2.08050000      -0.06410000      -1.08250000
N        3.16700000       0.32900000      -1.05240000
C        0.61680000      -2.04890000      -0.87110000
C        1.67680000      -2.99130000      -1.37930000
C        1.53260000      -2.73800000       0.10090000
H        0.84740000       1.92100000      -0.04100000
H       -0.75210000       1.84700000      -0.83540000
H       -0.62800000       1.70100000       0.93280000
H        0.13760000       0.85770000      -2.72060000
H        0.58730000      -0.76120000      -3.27580000
H       -0.98810000      -0.50080000      -2.49150000
H       -0.40970000      -2.40060000      -0.90580000
H        1.35200000      -3.94330000      -1.78360000
H        2.54510000      -2.56820000      -1.87270000
H        2.30190000      -2.14360000       0.58090000
H        1.10990000      -3.51560000       0.72640000
