21
Properties=species:S:1:pos:R:3 gdb_118974=T pbc="F F F"
C       -0.11040000       1.35250000      -0.00870000
O        0.07420000      -0.04360000      -0.03880000
C        0.64220000      -0.56090000       1.15420000
C        0.62860000      -2.07930000       1.00940000
O       -0.68350000      -2.51960000       0.75410000
C        1.76440000      -2.62170000       0.08310000
C        2.61520000      -2.90350000       1.35150000
C        1.30790000      -2.80810000       2.18730000
O        1.30560000      -2.09740000       3.40440000
H        0.84610000       1.88480000       0.10680000
H       -0.56410000       1.64410000      -0.95920000
H       -0.77470000       1.65740000       0.81440000
H        1.66200000      -0.17570000       1.30060000
H        0.04090000      -0.26870000       2.02680000
H       -1.06520000      -1.87510000       0.14390000
H        1.43730000      -3.53840000      -0.41190000
H        2.16760000      -1.93280000      -0.66090000
H        3.17270000      -3.84140000       1.39340000
H        3.28920000      -2.07770000       1.59450000
H        0.83770000      -3.79500000       2.29370000
H        1.68140000      -2.65910000       4.08850000
