21
Properties=species:S:1:pos:R:3 gdb_64403=T pbc="F F F"
C       -0.33620000       1.52950000      -0.00460000
C        0.03010000       0.04570000      -0.01340000
O       -1.16460000      -0.74620000      -0.04250000
C        0.95660000      -0.37350000      -1.17210000
C        1.48510000      -1.74190000      -0.73050000
C        1.80030000      -1.52600000       0.76330000
C        0.77840000      -0.46570000       1.26980000
C        1.48180000       0.63830000       2.02720000
O        1.16790000       1.04150000       3.11710000
H        0.55050000       2.17060000       0.02540000
H       -0.89370000       1.78580000      -0.91340000
H       -0.96350000       1.76610000       0.85910000
H       -1.66170000      -0.49460000      -0.82920000
H        0.42510000      -0.38740000      -2.13000000
H        1.78160000       0.34510000      -1.26520000
H        0.69450000      -2.48890000      -0.84410000
H        2.35420000      -2.07840000      -1.30160000
H        1.75500000      -2.44550000       1.35060000
H        2.82030000      -1.13350000       0.86910000
H        0.02580000      -0.88960000       1.93610000
H        2.36630000       1.06860000       1.49570000
