16
Properties=species:S:1:pos:R:3 gdb_48389=T pbc="F F F"
O       -0.19050000       0.12180000      -0.40090000
C       -0.02180000       1.21330000       0.07370000
C        1.31320000       1.95140000       0.02570000
C        2.56400000       1.15980000      -0.50230000
C        2.65540000       2.11530000      -1.69890000
C        1.38230000       2.09050000      -2.48960000
C        1.43230000       2.89350000      -1.21800000
C        1.54160000       2.65390000       1.27860000
N        1.69710000       3.20850000       2.28130000
H       -0.85150000       1.78880000       0.53600000
H        3.40380000       1.23760000       0.18790000
H        2.36300000       0.11080000      -0.72820000
H        3.57860000       2.51230000      -2.09970000
H        1.38080000       2.69590000      -3.39000000
H        0.78800000       1.18390000      -2.55500000
H        1.24860000       3.95870000      -1.17460000
