15
Properties=species:S:1:pos:R:3 gdb_43750=T pbc="F F F"
O        0.25100000      -0.00100000      -0.03970000
C        0.06360000       1.17000000       0.02470000
C       -1.16380000       2.09350000       0.12060000
C       -0.13840000       3.23010000       0.08170000
C       -0.23660000       4.45110000      -0.80140000
C       -1.19380000       5.42790000      -0.27830000
N       -1.95620000       6.18430000       0.14700000
C        0.85150000       3.07250000       1.15420000
N        1.03010000       2.25970000      -0.09610000
H       -1.78430000       2.02070000      -0.77690000
H       -1.79970000       2.00840000       1.00430000
H        0.74720000       4.92410000      -0.88970000
H       -0.54380000       4.16280000      -1.81350000
H        1.62620000       3.82440000       1.26330000
H        0.58530000       2.55920000       2.07450000
