19
Properties=species:S:1:pos:R:3 gdb_95136=T pbc="F F F"
C       -0.63600000       1.35570000       0.06650000
C        0.08700000       0.00950000      -0.01870000
C        1.12930000       0.02630000      -1.16010000
O        2.13250000      -0.98060000      -1.03820000
C        2.56700000      -1.15230000       0.30170000
C        1.42320000      -1.78500000       1.14970000
C        0.82530000      -0.35020000       1.29990000
C        2.28640000       0.12110000       1.16130000
O        2.96270000       0.96530000       1.66930000
H        0.05930000       2.15860000       0.33500000
H       -1.09850000       1.61740000      -0.89130000
H       -1.42600000       1.32800000       0.82290000
H       -0.64770000      -0.78230000      -0.21010000
H        0.65890000      -0.12500000      -2.13510000
H        1.61450000       1.01570000      -1.17070000
H        3.56120000      -1.59950000       0.28680000
H        0.81100000      -2.51630000       0.61860000
H        1.78160000      -2.19580000       2.09680000
H        0.26090000      -0.07880000       2.19350000
