20
Properties=species:S:1:pos:R:3 gdb_26226=T pbc="F F F"
C       -0.42370000       1.61660000      -0.16950000
C        0.14420000       0.19650000      -0.07440000
C       -0.94690000      -0.83570000       0.27500000
C        0.84740000      -0.18150000      -1.34110000
N        0.88200000       0.43790000      -2.47740000
C        1.66660000      -0.37010000      -3.29420000
C        2.07690000      -1.45880000      -2.60170000
C        2.91220000      -2.64670000      -2.90520000
O        1.55350000      -1.34840000      -1.33640000
H        0.36100000       2.34440000      -0.38890000
H       -1.16660000       1.68340000      -0.96900000
H       -0.90320000       1.89190000       0.77460000
H        0.89380000       0.16780000       0.72870000
H       -1.73500000      -0.83570000      -0.48520000
H       -0.53160000      -1.84500000       0.33690000
H       -1.40390000      -0.59190000       1.23900000
H        1.87870000      -0.10720000      -4.31870000
H        3.79300000      -2.69730000      -2.25510000
H        2.35180000      -3.57910000      -2.77170000
H        3.25510000      -2.60010000      -3.94130000
