18
Properties=species:S:1:pos:R:3 gdb_85695=T pbc="F F F"
C       -0.61520000       1.38600000       0.00850000
C       -0.01240000      -0.00140000      -0.04630000
O        1.21990000      -0.03730000      -0.83170000
C        1.97760000      -0.58990000       0.25810000
C        3.12260000       0.24290000       0.64390000
N        4.01970000       0.88680000       0.98510000
C        0.74810000      -0.52950000       1.17320000
C        0.68170000      -0.08760000       2.60020000
C        0.33050000      -1.50870000       2.22250000
H        0.09220000       2.10300000       0.43380000
H       -0.88470000       1.71640000      -0.99920000
H       -1.52580000       1.38340000       0.61780000
H       -0.73220000      -0.72180000      -0.45750000
H        2.33890000      -1.60170000       0.03130000
H        1.61960000       0.09410000       3.11500000
H       -0.12220000       0.58210000       2.88710000
H       -0.71360000      -1.80480000       2.24900000
H        1.02500000      -2.29860000       2.49050000
