19
Properties=species:S:1:pos:R:3 gdb_76817=T pbc="F F F"
O        0.33180000       1.41530000       0.06350000
C        0.08410000       0.03030000      -0.05450000
C        0.28490000      -0.65130000       1.37580000
O        1.03920000       0.04120000       2.31820000
C       -1.26270000      -0.69570000       1.46700000
C       -2.64050000      -1.43270000       1.47340000
C       -2.78490000      -0.16910000       0.51620000
C       -2.06280000       0.64400000       1.60970000
C       -1.38180000      -0.56620000      -0.06570000
H        0.06310000       1.84780000      -0.75290000
H        0.69980000      -0.40150000      -0.85410000
H        0.71630000      -1.65070000       1.26140000
H        0.89940000       0.98080000       2.14580000
H       -2.66740000      -2.41440000       0.99340000
H       -3.24130000      -1.41130000       2.38790000
H       -3.69000000       0.10950000      -0.03240000
H       -2.59610000       0.76940000       2.55590000
H       -1.57150000       1.56220000       1.29870000
H       -1.37290000      -1.50720000      -0.62530000
