19
Properties=species:S:1:pos:R:3 gdb_121066=T pbc="F F F"
C       -0.20450000       1.34740000      -0.32410000
O       -0.04470000      -0.03880000      -0.12530000
C        0.72000000      -0.65810000      -1.13340000
C        0.77210000      -2.15720000      -0.84420000
C       -0.62740000      -2.79830000      -0.92370000
O       -0.78720000      -3.23720000      -2.28430000
C        0.41850000      -3.36680000      -2.90180000
O        0.52750000      -3.77410000      -4.02100000
C        1.52030000      -2.92180000      -1.94190000
H        0.76330000       1.87250000      -0.32510000
H       -0.71520000       1.56590000      -1.27470000
H       -0.81190000       1.72730000       0.50040000
H        0.27280000      -0.47570000      -2.12670000
H        1.74230000      -0.24440000      -1.15700000
H        1.20670000      -2.30150000       0.14770000
H       -0.71840000      -3.66770000      -0.26300000
H       -1.42610000      -2.09150000      -0.69570000
H        2.27240000      -2.33950000      -2.47860000
H        2.01640000      -3.81810000      -1.55450000
