15
Properties=species:S:1:pos:R:3 gdb_129616=T pbc="F F F"
N       -0.08000000       1.42690000      -0.18090000
C       -0.01980000       0.03170000      -0.06110000
C       -1.08470000      -0.85230000       0.01010000
C       -2.56590000      -0.61980000      -0.04490000
C       -2.94400000       0.24910000      -1.16450000
N       -3.19970000       0.96510000      -2.03490000
N       -0.53320000      -2.08950000       0.19370000
N        0.80210000      -2.07020000       0.25490000
C        1.12350000      -0.78680000       0.09940000
H        0.80860000       1.82560000      -0.45400000
H       -0.79540000       1.74220000      -0.82640000
H       -3.10170000      -1.57040000      -0.14720000
H       -2.93500000      -0.15260000       0.87860000
H       -1.01430000      -2.96980000       0.26870000
H        2.16090000      -0.48460000       0.10760000
