16
Properties=species:S:1:pos:R:3 gdb_47458=T pbc="F F F"
N        0.00540000       1.31580000       0.11370000
C       -0.01390000       0.07300000      -0.08760000
O        1.06190000      -0.73430000      -0.30830000
C        0.60400000      -2.08670000      -0.34220000
O       -0.77540000      -2.04980000      -0.58760000
C       -1.25710000      -0.79810000      -0.11260000
C       -1.91820000      -0.88300000       1.28030000
C       -3.12290000      -1.69980000       1.28310000
C       -4.11990000      -2.36980000       1.26690000
H        0.95920000       1.67930000       0.10760000
H        1.10500000      -2.61480000      -1.15800000
H        0.84160000      -2.56090000       0.62290000
H       -1.98400000      -0.42050000      -0.83550000
H       -1.19240000      -1.27550000       2.00370000
H       -2.14420000       0.14350000       1.59210000
H       -5.00080000      -2.96250000       1.26070000
