23
Properties=species:S:1:pos:R:3 gdb_112828=T pbc="F F F"
C       -0.03880000       1.57250000       0.00550000
C        0.04900000       0.04500000       0.01820000
C        0.79690000      -0.55320000      -1.19740000
C        1.31910000      -1.93240000      -0.73080000
C        2.53830000      -2.42480000      -1.49790000
O        2.17270000      -2.56310000      -2.86550000
C        1.54700000      -1.76180000       0.76840000
C        2.27840000      -0.52220000       1.23460000
C        0.76900000      -0.55040000       1.22620000
H        0.96020000       2.02190000       0.03120000
H       -0.54560000       1.93330000      -0.89610000
H       -0.59430000       1.94740000       0.87190000
H       -0.97360000      -0.35850000       0.02440000
H        0.16510000      -0.62810000      -2.08460000
H        1.64030000       0.09170000      -1.47410000
H        0.52390000      -2.67740000      -0.86980000
H        3.36400000      -1.70470000      -1.37740000
H        2.87870000      -3.38640000      -1.07990000
H        2.94770000      -2.84960000      -3.35700000
H        1.61040000      -2.65290000       1.38430000
H        2.76700000      -0.57520000       2.20140000
H        2.80750000       0.09220000       0.51350000
H        0.25560000      -0.54640000       2.18240000
