10
Properties=species:S:1:pos:R:3 gdb_3774=T pbc="F F F"
C        0.06370000       1.42050000      -0.04390000
N        0.04950000      -0.02660000      -0.00890000
N        0.17090000      -0.79140000      -1.11050000
N        0.12730000      -2.00040000      -0.79250000
O       -0.03360000      -2.09250000       0.61050000
C       -0.08370000      -0.82090000       1.11720000
O       -0.21260000      -0.50580000       2.26500000
H        1.01160000       1.78460000      -0.44630000
H       -0.76340000       1.79710000      -0.65000000
H       -0.05250000       1.75480000       0.98810000
