18
Properties=species:S:1:pos:R:3 gdb_11408=T pbc="F F F"
C       -0.27060000       1.41850000      -0.16140000
C       -0.13160000      -0.10300000      -0.23690000
C        1.04240000      -0.55060000      -1.11500000
C        1.12960000      -2.07220000      -1.28930000
C        0.36740000      -2.31950000      -2.59120000
O       -0.03830000      -3.36730000      -3.01670000
C        0.20920000      -0.94960000      -3.25580000
O        0.92740000      -0.03180000      -2.45790000
H        0.61830000       1.87290000       0.29040000
H       -0.38790000       1.84300000      -1.16170000
H       -1.13640000       1.70710000       0.44130000
H        0.01580000      -0.52250000       0.76660000
H       -1.06040000      -0.54800000      -0.61970000
H        1.97070000      -0.12600000      -0.71970000
H        2.16510000      -2.39960000      -1.43790000
H        0.70660000      -2.65620000      -0.46940000
H        0.61880000      -0.95260000      -4.27140000
H       -0.86300000      -0.70600000      -3.32610000
