19
Properties=species:S:1:pos:R:3 gdb_114840=T pbc="F F F"
C       -0.02650000       1.38620000      -0.12300000
O       -0.02000000       0.01490000       0.20560000
C       -1.27720000      -0.60580000       0.08490000
C       -1.73810000      -0.92910000      -1.37640000
C       -1.87900000      -2.45870000      -1.27440000
O       -0.58560000      -3.04960000      -1.28370000
C       -0.07130000      -2.81100000       0.04130000
C       -1.23070000      -2.03170000       0.68540000
O       -2.35830000      -2.64920000       0.04920000
H        0.98430000       1.76440000       0.04630000
H       -0.29700000       1.55800000      -1.17510000
H       -0.72910000       1.94950000       0.51060000
H       -2.03860000      -0.01120000       0.60890000
H       -2.69030000      -0.45640000      -1.62930000
H       -0.98440000      -0.64240000      -2.11250000
H       -2.51870000      -2.96170000      -1.99900000
H        0.10630000      -3.76850000       0.54270000
H        0.85310000      -2.23170000      -0.00400000
H       -1.31290000      -2.09540000       1.76850000
