19
Properties=species:S:1:pos:R:3 gdb_116278=T pbc="F F F"
C       -0.02600000       1.56490000      -0.07890000
C        0.04210000       0.04150000       0.06510000
C       -1.33410000      -0.60660000       0.00900000
O       -1.90160000      -0.41530000      -1.28130000
C       -2.91460000      -1.37960000      -1.42910000
O       -2.63730000      -2.44400000      -0.52730000
C       -1.43290000      -2.14860000       0.14230000
C       -0.24370000      -2.87080000      -0.48080000
O       -0.25860000      -3.38100000      -1.56820000
H        0.97450000       2.00500000      -0.04310000
H       -0.48910000       1.84110000      -1.02950000
H       -0.61810000       2.01160000       0.72740000
H        0.66430000      -0.37920000      -0.73290000
H        0.51370000      -0.22460000       1.01930000
H       -1.98700000      -0.16210000       0.77950000
H       -3.90440000      -0.96800000      -1.17590000
H       -2.90230000      -1.73480000      -2.46550000
H       -1.51770000      -2.45620000       1.19250000
H        0.66650000      -2.89110000       0.16320000
