13
Properties=species:S:1:pos:R:3 gdb_130001=T pbc="F F F"
N        0.03400000       1.34440000       0.14010000
C       -0.01920000      -0.02970000       0.03200000
N       -1.14250000      -0.73340000       0.03060000
C       -0.67220000      -2.02110000       0.00980000
C        0.70080000      -2.10430000      -0.01640000
N        1.13850000      -0.78440000      -0.01670000
N        1.12580000      -3.37840000      -0.06460000
N        0.04560000      -4.13170000      -0.06020000
N       -1.05730000      -3.31450000      -0.01900000
H        0.71850000       1.79680000      -0.45110000
H       -0.88370000       1.75470000       0.03210000
H        2.07230000      -0.44230000       0.13030000
H       -1.97100000      -3.73540000      -0.01540000
