19
Properties=species:S:1:pos:R:3 gdb_1809=T pbc="F F F"
C       -0.24570000       1.43180000       0.12270000
C        0.09070000      -0.05810000      -0.03640000
C        0.94050000      -0.31300000      -1.28990000
C        0.77800000      -0.59780000       1.20740000
O        2.00040000       0.07220000       1.40630000
C       -0.04110000      -1.01080000       2.39980000
C        0.67110000      -2.05840000       1.55180000
H        0.66730000       2.01870000       0.25630000
H       -0.76950000       1.80900000      -0.76150000
H       -0.88510000       1.60250000       0.99480000
H       -0.85000000      -0.61530000      -0.13820000
H        1.90130000       0.20370000      -1.21310000
H        1.14330000      -1.38090000      -1.42040000
H        0.42800000       0.04760000      -2.18740000
H        2.42320000      -0.27850000       2.19560000
H        0.36160000      -0.80570000       3.38740000
H       -1.12300000      -0.94770000       2.34350000
H        0.07270000      -2.70650000       0.91970000
H        1.54310000      -2.54360000       1.98050000
