17
Properties=species:S:1:pos:R:3 gdb_47877=T pbc="F F F"
O       -0.12700000       0.01710000       0.26680000
C       -0.08910000       1.21090000       0.10800000
C       -1.31070000       2.10490000       0.13640000
C       -1.79760000       2.45360000      -1.28860000
C       -0.64810000       2.91190000      -2.19820000
O        0.26490000       3.73970000      -1.48720000
C        1.44300000       3.09580000      -1.06890000
C        1.30200000       1.88220000      -0.13670000
O        2.27760000       1.41680000       0.39490000
H       -2.09750000       1.58900000       0.69140000
H       -1.05800000       3.03570000       0.65550000
H       -2.28650000       1.58320000      -1.73960000
H       -2.54950000       3.24450000      -1.20950000
H       -0.11980000       2.04470000      -2.62160000
H       -1.03500000       3.49570000      -3.03980000
H        2.03810000       2.74680000      -1.93010000
H        2.04720000       3.84190000      -0.54420000
