19
Properties=species:S:1:pos:R:3 gdb_32765=T pbc="F F F"
C       -0.19530000       1.34930000       0.11010000
O       -0.26970000      -0.04120000       0.31740000
C        0.91750000      -0.57570000       0.89140000
C        0.79290000      -2.05280000       0.97160000
C        1.14210000      -2.96050000       1.95370000
N        1.77250000      -2.68510000       3.18560000
C        0.84380000      -4.26280000       1.45450000
C        0.31910000      -4.10920000       0.19100000
N        0.31660000      -2.77830000      -0.10650000
H        0.63950000       1.62140000      -0.55570000
H       -1.13420000       1.66250000      -0.35290000
H       -0.06730000       1.89750000       1.05700000
H        1.78030000      -0.26230000       0.27380000
H        1.08830000      -0.15520000       1.89730000
H        1.56750000      -1.75250000       3.52440000
H        1.49560000      -3.34810000       3.89950000
H        1.01160000      -5.19790000       1.96740000
H       -0.05620000      -4.83980000      -0.50750000
H       -0.14450000      -2.34660000      -0.88820000
