19
Properties=species:S:1:pos:R:3 gdb_16769=T pbc="F F F"
C       -0.58100000       0.81820000       0.08320000
O       -0.02320000      -0.45410000      -0.15020000
C        0.89280000      -0.49440000      -1.24010000
C        1.66980000      -1.82300000      -1.17030000
C        0.92890000      -2.75410000      -2.11710000
C       -0.55020000      -2.82710000      -2.00140000
N        0.06960000      -1.97110000      -3.02980000
C        0.19990000      -0.56030000      -2.62650000
H        0.20070000       1.57050000       0.27400000
H       -1.19790000       1.17230000      -0.75600000
H       -1.21540000       0.73500000       0.96900000
H        1.56240000       0.37520000      -1.16840000
H        2.69610000      -1.67690000      -1.52310000
H        1.71500000      -2.18330000      -0.13950000
H        1.47960000      -3.57810000      -2.56210000
H       -1.07830000      -3.68800000      -2.40190000
H       -1.01510000      -2.35340000      -1.14240000
H       -0.77800000      -0.06910000      -2.62430000
H        0.82200000      -0.05870000      -3.37710000
