19
Properties=species:S:1:pos:R:3 gdb_76847=T pbc="F F F"
C        0.36830000       1.55320000       0.00670000
C        0.11650000       0.05780000      -0.04160000
C        0.62620000      -0.76790000      -1.24220000
O        1.95820000      -0.40020000      -1.71560000
C        2.56530000      -1.35550000      -0.90340000
N        3.76020000      -1.71610000      -0.82470000
C        1.26390000      -1.73770000      -0.22320000
N        0.95200000      -0.77610000       0.86470000
C        0.35480000      -1.28570000       2.07870000
H        1.41230000       1.76990000      -0.23000000
H       -0.27250000       2.07840000      -0.70960000
H        0.15070000       1.94690000       1.00470000
H       -0.95700000      -0.16250000       0.09230000
H       -0.03630000      -1.01590000      -2.06890000
H        4.35670000      -1.18130000      -1.45880000
H        1.00900000      -2.78620000      -0.06640000
H        1.06490000      -1.93940000       2.59460000
H        0.12480000      -0.45140000       2.74950000
H       -0.58000000      -1.85400000       1.91040000
