18
Properties=species:S:1:pos:R:3 gdb_28920=T pbc="F F F"
N        0.05210000       1.42560000       0.03080000
C        0.01030000       0.01120000      -0.00080000
C       -1.18750000      -0.70580000       0.02180000
C       -1.16970000      -2.09670000       0.04780000
C        0.04050000      -2.78180000       0.00510000
C        1.24550000      -2.07710000      -0.01750000
N        2.50530000      -2.72200000      -0.00250000
C        1.23340000      -0.67500000       0.01500000
N        2.44820000       0.04340000       0.02920000
H        0.64710000       1.80810000      -0.69700000
H       -0.86930000       1.83630000      -0.05050000
H       -2.13040000      -0.16680000       0.01980000
H       -2.10290000      -2.64890000       0.06810000
H        0.05860000      -3.86760000      -0.00990000
H        2.42090000      -3.72620000      -0.09540000
H        3.12210000      -2.37590000      -0.73050000
H        3.17410000      -0.49180000       0.49530000
H        2.33210000       0.93180000       0.50660000
