19
Properties=species:S:1:pos:R:3 gdb_43215=T pbc="F F F"
O        0.05360000       0.03130000       0.19980000
C        0.03260000       1.22800000       0.12930000
C       -1.08740000       2.27410000      -0.04520000
C       -1.40130000       2.88400000       1.33440000
C       -0.06390000       3.16890000       2.06020000
C        1.01680000       3.46600000       1.01180000
C        0.44770000       4.41400000      -0.08190000
C       -0.01970000       3.14920000      -0.81950000
C        1.08340000       2.30190000      -0.07240000
H       -1.98160000       1.96630000      -0.58980000
H       -1.97550000       3.80640000       1.19670000
H       -2.02850000       2.20360000       1.91780000
H       -0.16840000       4.01450000       2.74870000
H        0.23650000       2.30190000       2.65960000
H        1.97270000       3.73280000       1.46600000
H       -0.29010000       5.16330000       0.22300000
H        1.24260000       4.91310000      -0.64290000
H       -0.12640000       3.13410000      -1.90390000
H        2.07040000       2.06440000      -0.46860000
