16
Properties=species:S:1:pos:R:3 gdb_29840=T pbc="F F F"
C        0.00450000       1.45850000       0.02840000
N        0.01170000       0.00650000       0.00050000
C       -0.00360000      -0.78260000      -1.11820000
C        0.01090000      -2.07850000      -0.65680000
N        0.03460000      -2.09640000       0.72350000
C        0.03450000      -0.83570000       1.09010000
C        0.05630000      -0.34270000       2.49690000
C        0.00340000      -3.25950000      -1.44440000
N       -0.00320000      -4.20780000      -2.10880000
H        0.90040000       1.84200000       0.52510000
H       -0.01510000       1.83430000      -0.99500000
H       -0.87790000       1.83260000       0.55560000
H       -0.02260000      -0.37220000      -2.11390000
H        0.94130000       0.27060000       2.70190000
H       -0.82620000       0.26370000       2.73170000
H        0.07090000      -1.20540000       3.16320000
