20
Properties=species:S:1:pos:R:3 gdb_57898=T pbc="F F F"
C       -1.74870000       1.19100000       1.22230000
C       -0.56020000       0.57600000       0.46180000
O        0.52580000       0.37160000       1.32360000
C       -0.95670000      -0.74850000      -0.19390000
O       -0.44060000      -1.77970000       0.20240000
C       -1.96860000      -0.70040000      -1.28610000
C       -1.98390000      -1.82000000      -2.29130000
N       -3.08460000      -1.66730000      -1.37690000
C       -3.27130000      -2.67560000      -0.33510000
H       -1.41540000       2.11000000       1.71020000
H       -2.58330000       1.43220000       0.55760000
H       -2.09910000       0.50090000       1.99560000
H       -0.26720000       1.26700000      -0.34710000
H        0.65430000      -0.59080000       1.34590000
H       -2.24370000       0.29930000      -1.61170000
H       -2.18250000      -1.58050000      -3.33290000
H       -1.26940000      -2.62170000      -2.11240000
H       -2.33900000      -3.09580000       0.05830000
H       -3.83660000      -2.23090000       0.48960000
H       -3.87520000      -3.48070000      -0.76420000
