16
Properties=species:S:1:pos:R:3 gdb_93132=T pbc="F F F"
O        0.13880000       1.26680000      -0.21750000
C       -0.11230000      -0.12010000      -0.04020000
C        0.63310000      -0.68870000       1.16630000
N        0.05760000      -0.24520000       2.43900000
C       -1.15130000       0.12420000       2.44770000
O       -2.04870000       0.16290000       1.42850000
C       -1.61540000      -0.37070000       0.16890000
C       -2.44140000       0.30350000      -0.91870000
O       -2.47770000      -0.10880000      -2.04600000
H        0.16690000       1.68250000       0.65180000
H        0.19010000      -0.60900000      -0.97050000
H        0.63910000      -1.78530000       1.13850000
H        1.67860000      -0.36530000       1.13040000
H       -1.62040000       0.48660000       3.36030000
H       -1.81940000      -1.44870000       0.14450000
H       -2.99620000       1.20440000      -0.58310000
