15
Properties=species:S:1:pos:R:3 gdb_25837=T pbc="F F F"
C        0.06010000       1.36300000       0.33650000
C        0.10580000      -0.14920000       0.30010000
O        1.13630000      -0.77580000       0.34250000
C       -1.23240000      -0.87320000       0.20540000
N       -2.32950000      -0.10910000       0.16260000
C       -3.49780000      -0.74820000       0.07970000
C       -3.57940000      -2.13400000       0.03960000
C       -2.37260000      -2.82700000       0.09060000
N       -1.19700000      -2.20900000       0.17320000
H        1.07890000       1.74520000       0.40470000
H       -0.43460000       1.75350000      -0.55790000
H       -0.53470000       1.70850000       1.18740000
H       -4.39070000      -0.12810000       0.04470000
H       -4.53060000      -2.64810000      -0.02770000
H       -2.34890000      -3.91450000       0.06420000
