21
Properties=species:S:1:pos:R:3 gdb_60075=T pbc="F F F"
C       -0.22510000       1.44670000      -0.32590000
C        0.06780000      -0.01930000      -0.00960000
C        1.07080000      -0.63350000      -0.98210000
O        0.63760000      -0.13280000       1.30970000
C       -0.22150000      -0.56740000       2.31920000
C       -0.49560000      -2.06350000       2.41010000
C        0.45350000      -1.40610000       3.37740000
C       -1.26900000       0.34010000       2.72530000
C       -2.14800000       1.08800000       3.06610000
H        0.69810000       2.03310000      -0.27860000
H       -0.64530000       1.54570000      -1.33240000
H       -0.93590000       1.86400000       0.39010000
H       -0.86660000      -0.59550000      -0.03840000
H        2.02970000      -0.10960000      -0.91470000
H        1.24280000      -1.68880000      -0.75230000
H        0.70880000      -0.55660000      -2.01210000
H       -1.46700000      -2.38310000       2.76800000
H       -0.06690000      -2.67100000       1.62150000
H        1.51480000      -1.56420000       3.22700000
H        0.14120000      -1.26980000       4.40550000
H       -2.91830000       1.75320000       3.36870000
