14
Properties=species:S:1:pos:R:3 gdb_130237=T pbc="F F F"
N        0.03030000       1.32110000       0.15210000
C        0.02140000      -0.05240000       0.03990000
N       -1.11550000      -0.66570000       0.00420000
O       -1.09530000      -2.06670000      -0.00240000
C        0.06610000      -2.81670000      -0.01090000
N        0.01450000      -4.08790000      -0.02070000
C        1.31550000      -2.08620000      -0.01410000
C        1.30700000      -0.74500000       0.01280000
O        2.38650000       0.07090000       0.00260000
H        0.83260000       1.78280000      -0.24760000
H       -0.85700000       1.75960000      -0.04750000
H       -0.95600000      -4.40450000      -0.02090000
H        2.22480000      -2.67500000      -0.03900000
H        3.19270000      -0.45750000      -0.03230000
