15
Properties=species:S:1:pos:R:3 gdb_128600=T pbc="F F F"
C       -0.04070000       1.39610000       0.05790000
O       -0.01010000      -0.01860000       0.02310000
C        0.60200000      -0.55910000      -1.04880000
C        1.21250000       0.03760000      -2.13390000
N        1.65880000      -0.99510000      -2.90630000
N        1.38690000      -2.20240000      -2.40950000
C        0.73410000      -1.96160000      -1.26190000
C        0.26610000      -2.99900000      -0.42200000
C       -0.14390000      -3.85840000       0.31380000
H        0.97470000       1.81520000       0.07410000
H       -0.58100000       1.80320000      -0.80780000
H       -0.56230000       1.67580000       0.97410000
H        1.36090000       1.06710000      -2.41020000
H        2.15330000      -0.93250000      -3.77950000
H       -0.50250000      -4.62150000       0.95860000
