19
Properties=species:S:1:pos:R:3 gdb_36974=T pbc="F F F"
C       -0.05470000       1.40990000      -0.14730000
O       -0.02020000       0.00800000       0.00130000
C       -1.29650000      -0.56700000       0.17130000
C       -1.13460000      -2.05600000       0.29960000
C       -2.22930000      -2.97180000      -0.03910000
O       -1.11210000      -2.81190000      -0.91180000
C        1.35570000       1.90740000      -0.30010000
C        1.71810000       3.28490000       0.05000000
O        2.07450000       2.19580000       0.89970000
H       -0.64590000       1.68850000      -1.03760000
H       -0.51820000       1.89190000       0.72910000
H       -1.78180000      -0.16610000       1.07890000
H       -1.95120000      -0.34410000      -0.68710000
H       -0.39800000      -2.37000000       1.03930000
H       -2.30210000      -3.93320000       0.46690000
H       -3.17310000      -2.57230000      -0.40960000
H        1.93960000       1.38850000      -1.06050000
H        2.54270000       3.77220000      -0.46790000
H        0.95940000       3.95910000       0.44710000
