17
Properties=species:S:1:pos:R:3 gdb_81114=T pbc="F F F"
C       -0.24400000       1.45820000      -0.01620000
N        0.01000000       0.01990000       0.00720000
C        1.21850000      -0.47250000      -0.79010000
C        2.15160000      -0.03460000       0.38170000
C        0.87510000      -0.50690000       1.16360000
C        0.85700000      -2.00500000       0.80300000
C        1.08830000      -1.97390000      -0.50940000
C        0.57590000      -0.08830000       2.51420000
N        0.34350000       0.26650000       3.58960000
H        0.63120000       2.11660000       0.10040000
H       -0.72270000       1.69720000      -0.97110000
H       -0.95420000       1.69660000       0.78130000
H        1.33320000      -0.11720000      -1.81240000
H        3.07450000      -0.59200000       0.54910000
H        2.32870000       1.03990000       0.44280000
H        0.66550000      -2.81610000       1.48790000
H        1.14670000      -2.77680000      -1.22850000
