16
Properties=species:S:1:pos:R:3 gdb_76363=T pbc="F F F"
N        0.16860000       1.40730000       0.05540000
C        0.05900000      -0.01970000       0.07600000
C       -0.42890000      -0.70590000       1.29830000
N       -0.73730000       0.05520000       2.44530000
C       -1.34910000      -0.70300000      -0.01330000
C       -2.49260000       0.15080000      -0.00820000
C       -3.41780000       0.92050000       0.03480000
C       -1.43660000      -1.93650000      -0.73800000
N       -1.45910000      -2.94610000      -1.30510000
H        0.63200000       1.71010000      -0.79340000
H       -0.75040000       1.84340000       0.06070000
H        0.83170000      -0.52690000      -0.49070000
H       -0.03410000      -1.70030000       1.48930000
H       -0.65130000       1.05010000       2.27630000
H       -1.64350000      -0.15260000       2.84620000
H       -4.25980000       1.56770000       0.05720000
