15
Properties=species:S:1:pos:R:3 gdb_66284=T pbc="F F F"
O        0.14470000       1.54540000       0.31360000
C       -0.03200000       0.17410000       0.05850000
C       -1.49940000      -0.19180000      -0.21020000
C       -1.35380000      -1.36600000      -1.18650000
O       -0.15370000      -1.09020000      -1.94860000
C        0.61360000      -0.19440000      -1.30310000
O        1.62400000       0.27910000      -1.73620000
C        0.56180000      -0.67660000       1.09850000
C        1.04870000      -1.38360000       1.93970000
H        1.02990000       1.76570000      -0.01240000
H       -2.05750000      -0.45280000       0.68880000
H       -1.97310000       0.66580000      -0.69580000
H       -1.22020000      -2.32040000      -0.66810000
H       -2.17650000      -1.45320000      -1.89720000
H        1.48880000      -1.99630000       2.68800000
