11
Properties=species:S:1:pos:R:3 gdb_132328=T pbc="F F F"
O       -0.26430000       1.48610000       0.01030000
C        0.04770000       0.17230000       0.00150000
C       -1.13540000      -0.66800000       0.00320000
C       -1.06190000      -2.01310000      -0.00460000
F       -2.18730000      -2.70930000      -0.00230000
N        0.01440000      -2.83450000      -0.01470000
C        1.23180000      -2.70900000      -0.02050000
O        2.38130000      -2.85160000      -0.02740000
O        1.20300000      -0.21480000      -0.00680000
H        0.57910000       1.96280000       0.00840000
H       -2.11220000      -0.20650000       0.01090000
