23
Properties=species:S:1:pos:R:3 gdb_41948=T pbc="F F F"
C       -0.02190000       1.53870000      -0.14420000
C        1.39430000       2.14040000      -0.04010000
C        2.26380000       1.52400000       1.07610000
C        1.78250000       1.79530000       2.51760000
C        0.49980000       1.03170000       2.88770000
O        0.47910000      -0.31690000       2.43850000
C        0.90680000      -0.54970000       1.09440000
C       -0.04590000       0.00350000       0.01530000
C        2.32150000      -0.00000000       0.88810000
H       -0.67160000       1.99700000       0.60590000
H       -0.45990000       1.80840000      -1.11210000
H        1.92160000       1.98130000      -0.99030000
H        1.32390000       3.22710000       0.09070000
H        3.27120000       1.94570000       0.97870000
H        2.58470000       1.48600000       3.19890000
H        1.61910000       2.86690000       2.68490000
H        0.40240000       0.97390000       3.97710000
H       -0.38510000       1.57010000       2.52330000
H        0.90930000      -1.64200000       1.01520000
H       -1.06490000      -0.34030000       0.22230000
H        0.25420000      -0.46270000      -0.93300000
H        2.68430000      -0.25930000      -0.11360000
H        3.00020000      -0.45730000       1.61650000
