11
Properties=species:S:1:pos:R:3 gdb_123319=T pbc="F F F"
C       -0.00640000      -1.19050000      -0.00390000
C       -0.03240000       0.01120000       0.00350000
C       -0.02060000       1.42190000       0.01130000
N       -1.13060000       2.17310000       0.02960000
N       -0.65970000       3.41000000       0.03060000
N        0.64920000       3.56470000       0.01500000
C        1.09530000       2.30300000       0.00220000
C        2.47640000       1.98110000      -0.01710000
N        3.59410000       1.68460000      -0.03290000
H        0.01620000      -2.25280000      -0.01070000
H       -1.27980000       4.20590000       0.04290000
