19
Properties=species:S:1:pos:R:3 gdb_41487=T pbc="F F F"
C        0.02460000       1.54220000      -0.12770000
O        1.34830000       1.55180000       0.46050000
C        1.47090000       0.11400000       0.35180000
C        1.15660000      -0.62640000       1.66760000
C       -0.35460000      -0.65100000       1.27110000
O       -0.90770000      -1.92140000       0.97900000
C       -0.62470000      -2.25040000      -0.38010000
C       -0.59850000      -0.91350000      -1.14340000
C       -0.01770000       0.01570000      -0.10100000
H       -0.71290000       2.07530000       0.48580000
H        0.03460000       1.98000000      -1.13540000
H        2.34020000      -0.18370000      -0.24290000
H        1.58030000      -1.63340000       1.72130000
H        1.41270000      -0.07340000       2.57380000
H       -1.03880000      -0.13150000       1.94770000
H        0.34970000      -2.75770000      -0.46520000
H       -1.39750000      -2.94340000      -0.72260000
H       -0.01220000      -0.96590000      -2.06510000
H       -1.61700000      -0.60090000      -1.40280000
