23
Properties=species:S:1:pos:R:3 gdb_82588=T pbc="F F F"
C       -0.38990000       1.52840000      -0.14390000
C       -0.00320000       0.05920000      -0.02460000
C        0.95650000      -0.61210000      -1.04050000
C        2.34630000       0.06540000      -1.15660000
C        2.79820000      -0.59520000       0.17140000
C        2.23630000       0.07980000       1.44910000
C        2.48000000       1.55470000       1.74460000
C        0.83040000      -0.52470000       1.15530000
C        1.51630000      -1.50300000       0.12660000
H        0.47550000       2.18130000      -0.27820000
H       -1.05130000       1.68140000      -1.00470000
H       -0.92700000       1.86960000       0.74840000
H       -0.92600000      -0.53640000      -0.03950000
H        0.51620000      -0.99950000      -1.96110000
H        2.90470000      -0.35350000      -1.99920000
H        2.38830000       1.15720000      -1.23550000
H        3.82280000      -0.96910000       0.21480000
H        2.62260000      -0.50390000       2.29560000
H        2.25260000       2.19760000       0.89120000
H        1.86860000       1.89520000       2.58800000
H        3.53010000       1.72340000       2.01000000
H        0.25850000      -0.84520000       2.02880000
H        1.49550000      -2.58930000       0.17350000
