18
Properties=species:S:1:pos:R:3 gdb_50833=T pbc="F F F"
O        0.22800000      -0.21230000       0.28760000
C        0.13110000       0.99990000       0.26180000
C        1.25790000       1.90710000       0.10800000
H        2.24300000       1.46220000       0.01500000
C        1.14940000       3.25230000       0.07160000
O       -0.01510000       3.90530000       0.18060000
C        2.32620000       4.17360000      -0.15000000
C        2.56240000       4.71010000      -1.59830000
C        2.65380000       6.11600000      -0.95990000
N        2.01970000       5.56780000       0.26800000
H        0.24220000       4.85340000       0.24330000
H        2.40980000       5.86820000       1.15490000
H       -0.85770000       1.49480000       0.36240000
H        3.23720000       3.75130000       0.28590000
H        3.44370000       4.33350000      -2.11570000
H        1.68400000       4.58330000      -2.23300000
H        3.69010000       6.44060000      -0.80740000
H        2.09330000       6.92920000      -1.42910000
