21
Properties=species:S:1:pos:R:3 gdb_59605=T pbc="F F F"
C        0.07330000       1.52570000      -0.07370000
C        0.02850000      -0.00150000       0.07910000
C        0.75950000      -0.44660000       1.35300000
C       -1.42830000      -0.51720000      -0.01720000
C       -1.56820000      -2.06610000       0.02330000
N       -1.94740000      -2.31360000       1.40450000
C       -2.50860000      -1.18120000       1.98460000
O       -3.07400000      -1.11850000       3.05340000
N       -2.28960000      -0.14140000       1.09590000
H        1.10680000       1.88410000      -0.10240000
H       -0.42240000       1.85470000      -0.99340000
H       -0.41590000       2.02720000       0.77010000
H        0.54780000      -0.43610000      -0.78740000
H        0.27870000      -0.03610000       2.24690000
H        0.77870000      -1.53420000       1.46030000
H        1.79430000      -0.09020000       1.34030000
H       -1.84560000      -0.13860000      -0.95830000
H       -2.33770000      -2.40060000      -0.68590000
H       -0.62750000      -2.56170000      -0.23780000
H       -2.32820000      -3.20190000       1.68780000
H       -2.33990000       0.80000000       1.44770000
