18
Properties=species:S:1:pos:R:3 gdb_96036=T pbc="F F F"
O       -0.14660000       1.46690000       0.35830000
C        0.00390000       0.09090000       0.03510000
C        0.64980000      -0.70280000       1.17960000
C       -0.53500000      -0.87470000       2.13390000
O       -1.67860000      -1.03010000       1.29260000
C       -1.39660000      -0.54850000      -0.01830000
C       -2.50360000       0.41890000      -0.46670000
C       -3.80150000      -0.24180000      -0.57890000
N       -4.82730000      -0.76200000      -0.68690000
H        0.72950000       1.85330000       0.45050000
H        0.53040000      -0.02980000      -0.92080000
H        0.99810000      -1.67390000       0.81220000
H        1.50020000      -0.17950000       1.62570000
H       -0.45490000      -1.75720000       2.77490000
H       -0.65470000       0.01150000       2.77160000
H       -1.37050000      -1.40270000      -0.70970000
H       -2.56920000       1.24260000       0.24740000
H       -2.24410000       0.85150000      -1.43920000
