15
Properties=species:S:1:pos:R:3 gdb_24827=T pbc="F F F"
N       -0.10490000       1.07760000       0.99560000
C       -0.03100000       0.11540000       0.15100000
C        1.24390000      -0.38880000      -0.35450000
C        1.57340000      -1.36450000      -1.22360000
N        0.76600000      -2.22110000      -1.93070000
C       -0.59960000      -2.29590000      -1.92620000
C       -1.50160000      -1.56330000      -1.24050000
C       -1.38370000      -0.45940000      -0.28270000
O       -2.40000000       0.01610000       0.18340000
H        0.83350000       1.40830000       1.23710000
H        2.10380000       0.13330000       0.05790000
H        2.62540000      -1.53490000      -1.42620000
H        1.24030000      -2.87720000      -2.52810000
H       -0.96820000      -3.07420000      -2.58690000
H       -2.54040000      -1.82270000      -1.41400000
