21
Properties=species:S:1:pos:R:3 gdb_104349=T pbc="F F F"
O       -0.06710000       1.44270000      -0.12530000
C        0.01180000       0.02880000       0.05190000
C       -1.42500000      -0.50040000       0.03440000
O       -2.01960000      -0.12230000      -1.20680000
C       -1.44700000      -2.03170000       0.07790000
C       -2.88220000      -2.56620000      -0.02780000
C       -3.82010000      -1.84220000       0.89970000
C       -3.52920000      -0.66690000       1.45360000
C       -2.23810000       0.07170000       1.21810000
H        0.80740000       1.77580000      -0.34280000
H        0.56990000      -0.43720000      -0.77240000
H        0.50980000      -0.22520000       0.99950000
H       -1.79630000       0.80920000      -1.32740000
H       -0.83360000      -2.42890000      -0.73800000
H       -0.99770000      -2.36250000       1.02220000
H       -3.23590000      -2.45720000      -1.06140000
H       -2.89380000      -3.64200000       0.18590000
H       -4.78090000      -2.31090000       1.09920000
H       -4.24580000      -0.18960000       2.11810000
H       -1.62760000       0.05070000       2.13330000
H       -2.43510000       1.13280000       1.02620000
