12
Properties=species:S:1:pos:R:3 gdb_9002=T pbc="F F F"
O        0.77740000       0.03620000       0.14780000
C        0.90070000       1.04390000      -0.49020000
C        0.70370000       2.42790000       0.11990000
O        1.04840000       3.47500000      -0.79610000
C        2.35810000       3.62550000      -1.01900000
O        3.23540000       2.95440000      -0.53660000
C        2.66270000       4.77860000      -1.98230000
O        1.82880000       5.45860000      -2.50790000
H        1.13660000       1.04470000      -1.57720000
H       -0.35510000       2.57600000       0.34600000
H        1.28940000       2.50270000       1.03960000
H        3.75320000       4.89960000      -2.13390000
