19
Properties=species:S:1:pos:R:3 gdb_92380=T pbc="F F F"
C        0.24820000       1.58130000       0.02280000
C        0.07230000       0.07270000       0.04920000
C        0.90660000      -0.80800000      -0.93600000
C        1.41220000      -1.68240000       0.24330000
C        2.70750000      -1.17500000       0.88210000
O        1.99670000      -0.16390000       1.63790000
C        0.70450000      -0.70330000       1.24600000
C       -0.12670000      -1.07570000       2.36330000
C       -0.84550000      -1.38930000       3.27550000
H        1.29720000       1.84740000       0.17770000
H       -0.07690000       1.99150000      -0.93920000
H       -0.34130000       2.06220000       0.81060000
H       -0.98770000      -0.19250000      -0.01540000
H        0.30870000      -1.34210000      -1.67690000
H        1.70520000      -0.27350000      -1.45940000
H        1.22410000      -2.75370000       0.21260000
H        3.19830000      -1.89300000       1.55170000
H        3.45450000      -0.73930000       0.20780000
H       -1.47170000      -1.66380000       4.08820000
