23
Properties=species:S:1:pos:R:3 gdb_87969=T pbc="F F F"
C       -0.24800000       1.51870000       0.00540000
C        0.04310000       0.02000000       0.02000000
C        0.81880000      -0.50300000      -1.20290000
C        1.28690000      -1.90270000      -0.77120000
C        1.58350000      -1.74720000       0.72630000
C        1.69360000      -2.96590000       1.62190000
C        2.91890000      -2.15570000       1.28260000
O        3.86390000      -2.66390000       0.38500000
C        0.91420000      -0.45030000       1.20730000
H        0.68250000       2.09630000      -0.04880000
H       -0.86300000       1.79680000      -0.85730000
H       -0.78230000       1.83330000       0.90860000
H       -0.91240000      -0.52210000       0.06400000
H        0.21830000      -0.51410000      -2.11780000
H        1.68590000       0.14480000      -1.38900000
H        0.47810000      -2.62840000      -0.92280000
H        2.15770000      -2.26260000      -1.32280000
H        1.29640000      -2.91430000       2.63150000
H        1.60400000      -3.93790000       1.14510000
H        3.33830000      -1.52350000       2.06760000
H        4.30290000      -3.41020000       0.80560000
H        1.67460000       0.31120000       1.42790000
H        0.32870000      -0.58900000       2.12210000
