17
Properties=species:S:1:pos:R:3 gdb_34345=T pbc="F F F"
N       -0.04550000      -1.12710000      -0.00640000
C       -0.03550000       0.02990000       0.00650000
C       -0.02330000       1.47060000       0.00890000
C       -0.47940000       2.21280000      -1.29290000
C        0.85260000       3.02950000      -1.28610000
C        1.29690000       2.30510000       0.00990000
N        0.99750000       2.90630000       1.36860000
C       -0.29750000       3.61280000       1.31670000
C       -0.31900000       2.14340000       1.37080000
H       -0.57360000       1.53840000      -2.14470000
H       -1.40690000       2.77960000      -1.19030000
H        1.50140000       2.79250000      -2.13170000
H        0.76570000       4.11610000      -1.22050000
H        2.27580000       1.82940000       0.02390000
H       -0.50540000       4.13620000       2.24520000
H       -0.60280000       4.15630000       0.42940000
H       -0.65070000       1.58470000       2.23970000
