19
Properties=species:S:1:pos:R:3 gdb_82132=T pbc="F F F"
C       -0.22030000       1.61820000       0.08190000
C        0.01620000       0.12060000       0.03700000
C        1.03630000      -0.48470000      -0.97870000
O        1.81060000       0.41780000      -1.75710000
C        1.57180000       0.48230000      -3.08240000
N        2.15860000       1.34620000      -3.78970000
C        1.76830000      -1.06430000       0.21520000
C        2.12370000      -0.00360000       1.17690000
N        0.74370000      -0.51490000       1.20270000
H        0.70680000       2.19400000       0.05080000
H       -0.82570000       1.92970000      -0.77560000
H       -0.76530000       1.87960000       0.99450000
H       -0.94210000      -0.40000000      -0.04910000
H        0.58560000      -1.24280000      -1.62720000
H        0.85720000      -0.27580000      -3.43390000
H        1.88320000       1.24220000      -4.76400000
H        2.14820000      -2.07750000       0.28530000
H        2.69260000      -0.30770000       2.04970000
H        2.33660000       1.00030000       0.82460000
