13
Properties=species:S:1:pos:R:3 gdb_21122=T pbc="F F F"
C       -0.00260000       1.42520000       0.05130000
N        0.12490000      -0.02010000       0.03380000
C        0.64820000      -0.60930000      -0.96760000
C        0.79160000      -2.05930000      -0.97490000
N        1.15910000      -2.71890000      -2.01950000
N        1.40620000      -1.94300000      -3.10400000
N        1.51830000      -0.60360000      -3.12970000
N        1.16600000       0.06520000      -2.11860000
H        0.53390000       1.81040000       0.92680000
H        0.36680000       1.93030000      -0.84590000
H       -1.05880000       1.67890000       0.20120000
H        0.59180000      -2.62140000      -0.06810000
H        1.79550000      -2.41120000      -3.90690000
