24
Properties=species:S:1:pos:R:3 gdb_58631=T pbc="F F F"
C       -0.16700000       1.36640000      -0.38990000
C        0.36200000      -0.05160000      -0.13460000
C        1.27280000      -0.49250000      -1.29310000
C        1.05700000      -0.24750000       1.22100000
C        2.13390000       0.71870000       1.67130000
C        0.79480000       0.67730000       2.37650000
N        1.14520000      -1.66880000       1.52760000
C        2.38420000      -2.39350000       1.25750000
C        1.92910000      -2.15320000       2.65300000
H        0.63250000       2.11600000      -0.37470000
H       -0.63120000       1.41310000      -1.38020000
H       -0.92560000       1.66250000       0.33960000
H       -0.50090000      -0.72920000      -0.11370000
H        2.17100000       0.13380000      -1.34490000
H        1.59050000      -1.53180000      -1.18370000
H        0.74930000      -0.40360000      -2.25070000
H        3.00210000       0.33630000       2.19780000
H        2.35520000       1.57430000       1.04240000
H        0.11960000       1.51400000       2.24820000
H        0.76260000       0.23290000       3.36550000
H        2.27330000      -3.37030000       0.79430000
H        3.24550000      -1.82030000       0.91960000
H        2.50820000      -1.44960000       3.24810000
H        1.46570000      -2.94790000       3.23180000
