19
Properties=species:S:1:pos:R:3 gdb_8368=T pbc="F F F"
O       -0.10170000       1.45940000       0.00890000
C        0.02440000       0.04640000      -0.01770000
C       -1.37980000      -0.54650000       0.02460000
C       -1.39000000      -2.05690000       0.00070000
C       -0.76930000      -3.07230000       0.99760000
N       -1.42690000      -4.00870000      -0.02920000
C       -2.60190000      -3.01730000       0.03350000
C       -0.85180000      -3.03900000      -1.07450000
H        0.78040000       1.84150000      -0.01540000
H        0.54360000      -0.29100000      -0.92950000
H        0.60860000      -0.31860000       0.84270000
H       -1.88470000      -0.18650000       0.92950000
H       -1.94950000      -0.15830000      -0.82880000
H        0.32010000      -3.16690000       1.03510000
H       -1.20730000      -3.14550000       1.99770000
H       -3.18100000      -3.08500000       0.95930000
H       -3.25280000      -3.05600000      -0.84520000
H       -1.36810000      -3.08050000      -2.03840000
H        0.23100000      -3.13090000      -1.20160000
