17
Properties=species:S:1:pos:R:3 gdb_110191=T pbc="F F F"
C       -0.04530000       1.23830000       0.18120000
O       -0.20710000      -0.16420000       0.35740000
C        0.75450000      -0.72320000       1.18690000
C        0.60410000      -2.27870000       1.33410000
N        2.02520000      -2.37550000       0.96360000
C        2.13570000      -1.03970000       0.57760000
N        2.96400000      -0.32010000      -0.04500000
C        0.28730000      -2.78900000       2.72110000
O       -0.75490000      -3.30140000       3.03390000
H        0.91900000       1.47060000      -0.28330000
H       -0.85930000       1.56620000      -0.46810000
H       -0.11790000       1.76660000       1.14370000
H        0.82720000      -0.19460000       2.15070000
H       -0.10830000      -2.66910000       0.60180000
H        2.47080000      -3.16940000       0.52460000
H        3.76550000      -0.85380000      -0.38690000
H        1.11650000      -2.63460000       3.44980000
