18
Properties=species:S:1:pos:R:3 gdb_86530=T pbc="F F F"
C        0.09690000       1.38820000       0.24290000
C       -0.10520000      -0.09520000      -0.02490000
C        0.95020000      -0.78920000      -0.94250000
N        1.28060000      -1.67860000       0.16930000
C        0.32740000      -1.07360000       1.11100000
C        2.19190000      -2.66710000       0.20190000
O        2.90010000      -2.98380000      -0.74360000
C        2.32700000      -3.42670000       1.52080000
O        1.69480000      -3.20570000       2.52140000
H        1.11820000       1.59240000       0.58310000
H       -0.07930000       1.97920000      -0.66200000
H       -0.59150000       1.74680000       1.01540000
H       -1.12710000      -0.28500000      -0.36120000
H        0.56340000      -1.31490000      -1.82120000
H        1.78970000      -0.15750000      -1.25470000
H        0.80390000      -0.60120000       1.97560000
H       -0.43750000      -1.76550000       1.47270000
H        3.09580000      -4.22320000       1.44750000
