18
Properties=species:S:1:pos:R:3 gdb_32606=T pbc="F F F"
C        0.13930000       1.57120000      -0.06820000
C       -0.03610000       0.05970000       0.10160000
N        0.70130000      -0.48060000       1.22560000
C        2.09310000      -0.66450000       1.31180000
C        2.36880000      -1.12130000       2.55270000
N        3.56690000      -1.39910000       3.22300000
N        1.15550000      -1.24320000       3.22480000
C        0.09550000      -0.81750000       2.42410000
O       -1.08630000      -0.75690000       2.71510000
H        1.19050000       1.83480000      -0.22270000
H       -0.42950000       1.92400000      -0.93430000
H       -0.21900000       2.10070000       0.81900000
H       -1.08500000      -0.18260000       0.29070000
H        0.27170000      -0.46560000      -0.81080000
H        2.74500000      -0.48790000       0.47390000
H        4.36870000      -1.15490000       2.65510000
H        3.64680000      -2.37710000       3.48770000
H        1.05000000      -1.38990000       4.21370000
