19
Properties=species:S:1:pos:R:3 gdb_40903=T pbc="F F F"
C        0.15290000       1.43930000      -0.21840000
C        1.58330000       1.54030000       0.35580000
C        1.32580000       0.10700000       0.80470000
O        0.02750000       0.06120000       0.20980000
C        2.18060000      -1.13460000       0.83260000
C        3.68540000      -0.97190000       0.97930000
C        3.82430000       0.01120000       2.16520000
O        2.61840000      -0.06600000       2.93050000
C        1.59370000      -0.57220000       2.11290000
H       -0.59350000       2.08120000       0.26290000
H        0.06320000       1.53230000      -1.30610000
H        2.37400000       1.66610000      -0.38720000
H        1.72170000       2.26090000       1.16360000
H        1.77620000      -2.02990000       0.37360000
H        4.13040000      -1.94350000       1.21640000
H        4.18250000      -0.58780000       0.08310000
H        4.65910000      -0.22900000       2.83010000
H        3.96850000       1.03670000       1.79940000
H        0.78920000      -1.03800000       2.67120000
