16
Properties=species:S:1:pos:R:3 gdb_97269=T pbc="F F F"
C        0.08920000       1.42680000       0.08220000
N        0.02070000      -0.02090000       0.06690000
C        0.56240000      -0.61900000      -0.90560000
N        0.53270000      -2.01860000      -0.98240000
C       -0.13940000      -2.75040000       0.09040000
C        1.13830000      -2.61660000      -2.06300000
O        1.70100000      -2.03240000      -2.96370000
C        1.07250000      -4.08980000      -2.08520000
N        1.06860000      -5.24140000      -2.18320000
H        0.62080000       1.85710000      -0.77980000
H       -0.92660000       1.83640000       0.10810000
H        0.58710000       1.75530000       1.00120000
H        1.08270000      -0.15470000      -1.74530000
H       -0.08160000      -3.82000000      -0.10450000
H        0.33640000      -2.52040000       1.04600000
H       -1.18450000      -2.43910000       0.14850000
