13
Properties=species:S:1:pos:R:3 gdb_25865=T pbc="F F F"
N       -0.15400000       1.31740000       0.00030000
C        0.04240000      -0.02880000      -0.00420000
O        1.13610000      -0.56710000      -0.01350000
C       -1.19490000      -0.82740000       0.00460000
C       -1.35770000      -2.16070000       0.00290000
N       -2.72150000      -2.39170000       0.01470000
C       -3.41680000      -1.19500000       0.02290000
O       -4.59610000      -0.99010000       0.03420000
O       -2.43980000      -0.21460000       0.01680000
H        0.65240000       1.91850000      -0.00170000
H       -1.07720000       1.71580000       0.01210000
H       -0.61660000      -2.94050000      -0.00520000
H       -3.18970000      -3.28100000       0.01690000
