17
Properties=species:S:1:pos:R:3 gdb_74480=T pbc="F F F"
N       -0.00100000       1.30750000       0.15090000
C       -0.01940000      -0.05910000       0.01480000
N       -1.08940000      -0.76080000      -0.10080000
C       -0.72380000      -2.15870000      -0.05010000
C       -1.59390000      -3.10750000       0.74220000
C       -1.59000000      -3.16540000      -0.76290000
C        0.77640000      -2.25330000      -0.00700000
O        1.41860000      -1.64120000      -1.13510000
C        1.25180000      -0.86340000       0.06480000
H        0.79180000       1.78650000      -0.24920000
H       -0.88650000       1.75440000      -0.04380000
H       -1.10450000      -3.90510000       1.29260000
H       -2.45520000      -2.67190000       1.23460000
H       -2.44970000      -2.76430000      -1.28610000
H       -1.10440000      -4.00210000      -1.25270000
H        1.29920000      -3.09760000       0.43390000
H        2.16040000      -0.52170000       0.55240000
