18
Properties=species:S:1:pos:R:3 gdb_110157=T pbc="F F F"
C        0.21050000       1.47200000      -0.18710000
C       -0.08630000       0.01310000       0.16960000
N        0.63270000      -0.44900000       1.33540000
C        2.06070000      -0.74650000       1.55450000
C        1.65380000      -1.24770000       2.98260000
C        0.21130000      -0.87930000       2.57130000
O       -0.87830000      -0.92440000       3.07800000
C        2.63500000      -1.72630000       0.64450000
C        3.10140000      -2.52640000      -0.12190000
H        1.27220000       1.61730000      -0.41160000
H       -0.36030000       1.76880000      -1.07220000
H       -0.06010000       2.13760000       0.63750000
H       -1.14740000      -0.12030000       0.40150000
H        0.15150000      -0.64160000      -0.67900000
H        2.68390000       0.15560000       1.57440000
H        1.81560000      -2.31250000       3.15140000
H        2.06210000      -0.66780000       3.81160000
H        3.51660000      -3.23870000      -0.79180000
