18
Properties=species:S:1:pos:R:3 gdb_20077=T pbc="F F F"
C        0.37300000       1.42020000       0.03510000
O        1.19280000       0.28040000      -0.23920000
C       -0.19260000       0.06500000       0.04770000
C       -0.53320000      -0.70210000       1.30540000
C       -0.21460000      -2.22470000       1.19790000
C        0.57790000      -2.52260000       2.49100000
O        0.30390000      -1.44770000       3.37810000
C        0.24470000      -0.28490000       2.57160000
H        0.58530000       1.93030000       0.97320000
H        0.18680000       2.07620000      -0.81400000
H       -0.77180000      -0.23320000      -0.82870000
H       -1.60580000      -0.57210000       1.48720000
H       -1.13280000      -2.81400000       1.14560000
H        0.37880000      -2.44910000       0.30790000
H        0.28110000      -3.44990000       2.98750000
H        1.65660000      -2.57490000       2.27560000
H        1.25660000       0.05050000       2.29470000
H       -0.24660000       0.50010000       3.15180000
