12
Properties=species:S:1:pos:R:3 gdb_4749=T pbc="F F F"
O        0.11120000       1.35080000      -0.10100000
C        0.06960000       0.00710000      -0.06820000
C       -0.00980000      -0.83170000      -1.17000000
N       -0.02430000      -2.08920000      -0.63320000
C        0.04370000      -1.97310000       0.72760000
C        0.04620000      -3.15480000       1.58210000
O        0.10330000      -3.15350000       2.78840000
N        0.10200000      -0.69090000       1.08420000
H        0.16440000       1.64690000       0.81670000
H       -0.05400000      -0.63960000      -2.22750000
H       -0.07640000      -2.95220000      -1.15060000
H       -0.01210000      -4.10760000       1.00220000
