23
Properties=species:S:1:pos:R:3 gdb_94939=T pbc="F F F"
C        0.54550000       1.50120000      -0.16170000
C       -0.02560000       0.08780000       0.02330000
C        0.36710000      -0.86000000      -1.15010000
C        1.52600000      -1.76140000      -0.64280000
C        1.50430000      -1.67540000       0.87690000
C        0.55440000      -0.55360000       1.28160000
C        0.24310000      -1.97510000       1.66130000
C       -0.93000000      -2.78450000       1.15670000
O        0.46910000      -2.17490000       3.04320000
H        1.63840000       1.47520000      -0.24100000
H        0.15340000       1.96670000      -1.07190000
H        0.28930000       2.14770000       0.68430000
H       -1.11800000       0.16870000       0.08640000
H       -0.48760000      -1.46670000      -1.45920000
H        0.66360000      -0.28750000      -2.03440000
H        1.43690000      -2.78610000      -1.02130000
H        2.49070000      -1.38270000      -0.99840000
H        2.43450000      -1.82230000       1.41600000
H        0.79950000       0.09690000       2.11490000
H       -1.16210000      -2.59830000       0.10800000
H       -0.72570000      -3.85780000       1.26210000
H       -1.81980000      -2.55630000       1.75230000
H        0.77100000      -3.08310000       3.15910000
