17
Properties=species:S:1:pos:R:3 gdb_37316=T pbc="F F F"
C       -0.07000000       1.51630000      -0.01720000
O        1.21750000       2.12720000       0.21870000
C        2.05220000       1.52230000       1.09210000
N        2.07830000       0.32020000       1.49150000
C        1.12080000      -0.57920000       0.90980000
C        0.04330000      -1.20840000       1.80390000
N       -0.87810000      -0.13130000       2.22250000
C       -1.03050000      -0.73910000       0.88140000
C       -0.01670000      -0.00950000      -0.02060000
H       -0.73630000       1.85680000       0.77960000
H       -0.40390000       1.92820000      -0.97190000
H        2.80210000       2.23300000       1.43720000
H        1.66240000      -1.37580000       0.38890000
H        0.12610000      -2.11990000       2.38280000
H       -1.57530000      -0.55210000       2.83470000
H       -1.95300000      -1.22230000       0.58490000
H        0.04010000      -0.41930000      -1.03010000
