21
Properties=species:S:1:pos:R:3 gdb_22460=T pbc="F F F"
C       -0.70970000       1.02380000      -0.60640000
N       -0.13170000      -0.33610000      -0.53900000
H        0.01330000      -0.64130000       0.42490000
H       -0.74860000      -1.06150000      -0.96850000
C        1.31830000      -0.63190000      -1.26940000
C        2.41160000      -0.07950000      -0.37080000
C        1.28600000      -2.07890000      -1.49940000
C        0.30820000      -2.59260000      -2.51240000
O       -1.00000000      -2.70940000      -1.86900000
N        1.51760000      -2.82200000      -0.41040000
O        0.98940000      -3.98590000      -0.40100000
H       -0.02740000       1.73710000      -0.14210000
H       -0.85190000       1.28910000      -1.65550000
H       -1.67410000       1.05470000      -0.09400000
H        1.20960000      -0.04650000      -2.18790000
H        2.54590000      -0.73310000       0.49310000
H        3.34960000      -0.07220000      -0.93150000
H        2.21200000       0.94750000      -0.04550000
H        0.17530000      -1.91860000      -3.36510000
H        0.60730000      -3.57890000      -2.87780000
H       -0.79080000      -3.39020000      -1.19790000
