25
Properties=species:S:1:pos:R:3 gdb_123014=T pbc="F F F"
C        0.06160000       1.55780000       0.09450000
C       -0.02380000       0.03660000       0.24580000
C       -1.39260000      -0.53390000      -0.14060000
C       -1.48640000      -2.05580000       0.00700000
C       -2.86160000      -2.61760000      -0.37550000
C       -2.94460000      -4.12450000      -0.24690000
C       -3.19800000      -4.76850000       1.10560000
C       -4.25120000      -4.81120000       0.02560000
O       -5.38620000      -3.99890000       0.13430000
H        1.05030000       1.93420000       0.37560000
H       -0.12920000       1.86410000      -0.94020000
H       -0.67820000       2.06080000       0.72750000
H        0.75220000      -0.43710000      -0.37030000
H        0.20410000      -0.24180000       1.28340000
H       -2.17000000      -0.06040000       0.47580000
H       -1.62170000      -0.25370000      -1.17850000
H       -0.71230000      -2.52920000      -0.61350000
H       -1.25610000      -2.33920000       1.04290000
H       -3.63940000      -2.16060000       0.24530000
H       -3.09630000      -2.33160000      -1.40990000
H       -2.26930000      -4.66790000      -0.90410000
H       -2.67540000      -5.68090000       1.37220000
H       -3.38860000      -4.09440000       1.93520000
H       -4.42770000      -5.76670000      -0.46900000
H       -5.93710000      -4.35460000       0.83900000
