21
Properties=species:S:1:pos:R:3 gdb_52666=T pbc="F F F"
C       -0.00940000       1.49770000       0.06530000
C        0.01010000       0.04180000       0.02850000
C        0.02820000      -1.16280000       0.00990000
C        0.01070000      -2.62430000      -0.03020000
C       -1.43500000      -3.15320000       0.07530000
C        0.72620000      -3.16720000      -1.30230000
C        2.17250000      -2.65540000      -1.42280000
C        0.76950000      -4.68210000      -1.25990000
O        0.38710000      -5.41900000      -2.13080000
H        0.84230000       1.89420000       0.62890000
H        0.03440000       1.92250000      -0.94360000
H       -0.92340000       1.87040000       0.54080000
H        0.57300000      -2.99670000       0.84010000
H       -1.45380000      -4.24740000       0.10120000
H       -1.91480000      -2.77940000       0.98300000
H       -2.02750000      -2.82340000      -0.78320000
H        0.15330000      -2.87650000      -2.18870000
H        2.63360000      -3.00480000      -2.35090000
H        2.18510000      -1.56320000      -1.41360000
H        2.78680000      -3.00660000      -0.58530000
H        1.23360000      -5.08930000      -0.32730000
