20
Properties=species:S:1:pos:R:3 gdb_93040=T pbc="F F F"
O        0.18450000       1.29070000      -0.33380000
C        0.06320000      -0.07890000       0.03510000
C        0.80540000      -0.39030000       1.36260000
C        0.01770000      -0.09520000       2.62120000
C       -1.04860000      -0.80660000       2.99280000
C       -1.54870000      -1.95730000       2.18650000
N       -2.89890000      -1.84200000       1.59220000
C       -1.71140000      -1.82100000       0.71280000
C       -1.42060000      -0.49040000       0.04680000
H       -0.34180000       1.80610000       0.28750000
H        0.59170000      -0.61570000      -0.76110000
H        1.08230000      -1.45110000       1.35180000
H        1.73930000       0.17800000       1.34660000
H        0.34650000       0.73420000       3.24290000
H       -1.58420000      -0.57000000       3.90930000
H       -1.27330000      -2.94330000       2.56330000
H       -3.33690000      -2.75960000       1.56600000
H       -1.51810000      -2.71030000       0.11530000
H       -1.98230000       0.26910000       0.60070000
H       -1.80450000      -0.47600000      -0.97880000
