17
Properties=species:S:1:pos:R:3 gdb_64742=T pbc="F F F"
C       -0.01550000       1.59230000       0.04590000
C        0.01350000       0.06650000       0.01420000
C       -1.38600000      -0.56120000       0.18590000
C       -2.08980000      -0.11810000       1.38830000
N       -2.66800000       0.24370000       2.32060000
C        0.82840000      -0.57800000      -1.13820000
O        1.77750000      -1.12730000      -0.17570000
C        1.09030000      -0.57240000       0.88540000
N        1.30850000      -0.60280000       2.11640000
H        0.98590000       2.00300000      -0.10890000
H       -0.67350000       1.98540000      -0.73690000
H       -0.38110000       1.94580000       1.01330000
H       -2.00360000      -0.30120000      -0.68280000
H       -1.31020000      -1.65380000       0.20940000
H        0.33420000      -1.37540000      -1.70020000
H        1.31880000       0.12080000      -1.82020000
H        2.14610000      -1.13970000       2.34610000
