21
Properties=species:S:1:pos:R:3 gdb_83878=T pbc="F F F"
C       -0.06460000       1.55110000      -0.06440000
C        0.00990000       0.02020000      -0.01130000
C        0.56370000      -0.56150000      -1.32420000
O        0.78090000      -1.95820000      -1.22710000
C        1.85230000      -2.26750000      -0.35340000
C        1.68800000      -1.69570000       1.05050000
C        2.25560000      -0.32560000       1.37770000
O        2.95280000       0.39880000       0.40410000
C        0.77630000      -0.48680000       1.20490000
H        0.93530000       1.98290000      -0.16140000
H       -0.66990000       1.88550000      -0.91470000
H       -0.52050000       1.95460000       0.84570000
H       -1.00940000      -0.37630000       0.09010000
H       -0.16740000      -0.42150000      -2.12680000
H        1.49230000      -0.04680000      -1.60940000
H        1.88790000      -3.35880000      -0.30280000
H        2.80070000      -1.92360000      -0.80130000
H        1.69040000      -2.42650000       1.85300000
H        2.62040000      -0.17180000       2.39350000
H        3.83780000       0.02560000       0.32530000
H        0.20560000      -0.43420000       2.12840000
