16
Properties=species:S:1:pos:R:3 gdb_44258=T pbc="F F F"
O       -0.00990000       0.08320000       0.63300000
C       -0.08090000       1.21040000       0.23570000
C       -1.20940000       2.22400000      -0.06680000
C       -0.05280000       3.26160000      -0.15200000
N        0.91950000       2.15700000      -0.04310000
C        2.02560000       2.46710000       0.87210000
C        1.43360000       3.53250000       1.82170000
C        0.22750000       4.13810000       1.07630000
O       -0.38210000       5.12370000       1.39310000
H       -1.76240000       2.05930000      -0.99290000
H       -1.91220000       2.36020000       0.75760000
H        0.00300000       3.85350000      -1.07030000
H        2.33420000       1.55120000       1.37910000
H        2.88110000       2.85510000       0.31080000
H        1.05360000       3.07200000       2.74190000
H        2.12970000       4.31970000       2.11830000
