18
Properties=species:S:1:pos:R:3 gdb_6915=T pbc="F F F"
C        0.07830000       1.56170000      -0.19950000
C        0.01320000       0.06450000       0.00440000
O       -1.15910000      -0.51950000      -0.51130000
C        1.26960000      -0.77810000      -0.03010000
C        0.48710000      -0.61170000       1.25850000
C        1.06290000       0.14240000       2.44860000
C        1.90820000      -0.70140000       3.28940000
C        2.59690000      -1.41110000       3.97230000
H        0.98310000       1.99940000       0.22980000
H        0.08100000       1.79850000      -1.27080000
H       -0.79290000       2.05040000       0.24880000
H       -1.13130000      -0.43380000      -1.47120000
H        1.21770000      -1.73920000      -0.52910000
H        2.22650000      -0.27120000      -0.11250000
H       -0.11710000      -1.46990000       1.53540000
H        1.64860000       1.00420000       2.10670000
H        0.24580000       0.55450000       3.05580000
H        3.20840000      -2.03190000       4.57860000
