24
Properties=species:S:1:pos:R:3 gdb_56141=T pbc="F F F"
C       -0.13210000       1.45570000      -0.10010000
C       -0.25450000      -0.03540000      -0.38010000
O        0.26550000      -0.55330000      -1.35240000
N       -0.97570000      -0.74170000       0.54240000
C       -1.14200000      -2.18370000       0.47410000
C       -2.55240000      -2.66360000       0.04950000
C       -2.89440000      -2.13250000      -1.35250000
C       -2.52710000      -4.20180000       0.03030000
C       -3.60510000      -2.18020000       1.06260000
H       -0.38760000       2.00450000      -1.00920000
H       -0.76470000       1.80500000       0.72040000
H        0.91090000       1.68530000       0.13740000
H       -1.35380000      -0.25010000       1.33410000
H       -0.40070000      -2.53910000      -0.24600000
H       -0.89670000      -2.61390000       1.45390000
H       -2.14860000      -2.44800000      -2.08820000
H       -3.87380000      -2.50130000      -1.67620000
H       -2.92760000      -1.03920000      -1.36500000
H       -2.27680000      -4.61060000       1.01600000
H       -3.50400000      -4.60380000      -0.25780000
H       -1.78760000      -4.57640000      -0.68580000
H       -3.65180000      -1.08620000       1.09980000
H       -4.60310000      -2.53850000       0.78900000
H       -3.38660000      -2.54680000       2.07260000
