21
Properties=species:S:1:pos:R:3 gdb_106136=T pbc="F F F"
C       -0.54000000       1.26230000       0.28380000
C       -0.11150000      -0.15670000       0.05390000
C        1.02580000      -0.65510000      -0.83980000
C        0.40710000      -2.06920000      -0.67920000
C        0.62550000      -2.40490000       0.82180000
C       -0.35100000      -1.26680000       1.10600000
C       -0.95860000      -1.36600000      -0.27550000
C       -2.36580000      -1.53800000      -0.73500000
O       -3.19430000      -0.70490000       0.06960000
H        0.19620000       1.80980000       0.88500000
H       -0.65620000       1.79870000      -0.66550000
H       -1.50250000       1.29660000       0.80090000
H        0.91680000      -0.27370000      -1.86040000
H        2.06370000      -0.52040000      -0.50950000
H        0.53730000      -2.82780000      -1.44930000
H        0.19510000      -3.37460000       1.08970000
H        1.65070000      -2.34200000       1.20680000
H       -0.87080000      -1.03670000       2.02730000
H       -2.45520000      -1.27080000      -1.80190000
H       -2.66470000      -2.59660000      -0.64430000
H       -4.09430000      -0.77020000      -0.26280000
