14
Properties=species:S:1:pos:R:3 gdb_132790=T pbc="F F F"
N       -0.01640000       1.42120000       0.15570000
C        0.00190000       0.03570000       0.05450000
C       -1.17190000      -0.72260000       0.03480000
F       -2.33340000      -0.04200000       0.04420000
C       -1.17600000      -2.10550000      -0.00280000
C        0.03980000      -2.78640000      -0.02470000
C        1.23680000      -2.07270000      -0.01630000
C        1.19550000      -0.69040000       0.02160000
F        2.33810000       0.02140000       0.01810000
H        0.81760000       1.86930000      -0.19390000
H       -0.86610000       1.84640000      -0.18450000
H       -2.12580000      -2.62620000      -0.01540000
H        0.05430000      -3.86910000      -0.05190000
H        2.20020000      -2.56740000      -0.03960000
