20
Properties=species:S:1:pos:R:3 gdb_109021=T pbc="F F F"
C        0.52690000       0.66900000       0.66650000
C       -0.33370000       0.43800000      -0.58710000
C        0.43800000      -0.16860000      -1.71160000
N        0.73530000       0.38140000      -2.82480000
C        1.53580000      -0.57680000      -3.54700000
C        2.84910000      -0.97520000      -2.89390000
C        1.62100000      -1.81110000      -2.66310000
C        1.48960000      -3.25740000      -3.03390000
O        0.87110000      -1.45040000      -1.50310000
H        0.95330000      -0.27140000       1.02550000
H        1.35000000       1.35750000       0.45240000
H       -0.07690000       1.10080000       1.46940000
H       -1.16710000      -0.23010000      -0.33910000
H       -0.75200000       1.37930000      -0.94970000
H        1.43700000      -0.58920000      -4.62630000
H        3.60500000      -1.40540000      -3.54230000
H        3.22720000      -0.35470000      -2.08800000
H        2.01780000      -3.45310000      -3.97110000
H        1.92090000      -3.90430000      -2.26240000
H        0.43870000      -3.53320000      -3.16530000
