15
Properties=species:S:1:pos:R:3 gdb_10050=T pbc="F F F"
O        0.11530000       1.39130000       0.04220000
C        0.04580000      -0.00980000      -0.03400000
C       -1.41280000      -0.52940000       0.00990000
C       -1.43000000      -2.07540000      -0.11220000
C       -2.77730000      -2.62760000      -0.21900000
N       -3.84430000      -3.05980000      -0.31520000
C       -2.06340000      -0.07070000       1.23350000
C       -2.54100000       0.33110000       2.26130000
H       -0.31370000       1.65720000       0.86490000
H        0.49690000      -0.29220000      -0.99090000
H        0.62140000      -0.49790000       0.76910000
H       -1.94070000      -0.10500000      -0.85240000
H       -0.86060000      -2.37240000      -1.00030000
H       -0.93310000      -2.52110000       0.75610000
H       -2.99900000       0.67130000       3.15770000
