20
Properties=species:S:1:pos:R:3 gdb_61303=T pbc="F F F"
C       -0.13810000       1.54900000       0.03270000
C       -0.01400000       0.02140000      -0.01570000
C        0.77950000      -0.51810000       1.20020000
C        2.14940000      -0.01350000       1.26250000
N        3.23250000       0.38880000       1.29370000
C       -1.38320000      -0.68250000      -0.07590000
C       -2.15830000      -0.39200000      -1.33930000
C       -3.62590000      -0.39650000      -1.37450000
O       -2.89710000       0.83200000      -1.39130000
H        0.84850000       2.02010000       0.06290000
H       -0.67680000       1.92800000      -0.83770000
H       -0.69280000       1.86490000       0.92410000
H        0.54890000      -0.25540000      -0.91730000
H        0.26650000      -0.24530000       2.13110000
H        0.82060000      -1.61320000       1.17210000
H       -1.23700000      -1.76960000      -0.01020000
H       -1.99300000      -0.38750000       0.78750000
H       -1.63330000      -0.62470000      -2.26860000
H       -4.14700000      -0.64570000      -2.29760000
H       -4.18200000      -0.59660000      -0.45930000
