14
Properties=species:S:1:pos:R:3 gdb_125330=T pbc="F F F"
C       -0.00480000       1.47440000       0.07350000
C        0.01910000      -0.01290000      -0.03820000
C       -0.08500000      -0.76860000      -1.18300000
N       -0.00470000      -2.08650000      -0.73540000
C       -0.00590000      -3.42130000      -1.02710000
N        0.12510000      -4.15320000       0.03870000
O        0.22110000      -3.24980000       1.12830000
C        0.13860000      -2.00690000       0.62640000
N        0.16040000      -0.80320000       1.10710000
H        0.92140000       1.84400000       0.52570000
H       -0.12250000       1.94180000      -0.90740000
H       -0.82930000       1.80140000       0.71550000
H       -0.20080000      -0.50890000      -2.22000000
H       -0.10150000      -3.84640000      -2.01350000
