16
Properties=species:S:1:pos:R:3 gdb_24250=T pbc="F F F"
C        0.01140000       1.45500000       0.01410000
C        1.25830000       0.65200000       0.03290000
C        1.98270000       0.36880000       1.37430000
C        0.90700000      -0.38000000       2.11680000
C       -0.14900000      -0.54690000       1.28810000
O       -1.16750000      -1.21130000       1.85750000
C       -0.73150000      -1.48880000       3.13620000
C        0.52530000      -1.00160000       3.34970000
N       -0.08210000      -0.03290000      -0.01980000
H       -0.30290000       1.94420000       0.93200000
H       -0.29610000       1.94420000      -0.90520000
H        1.83850000       0.57990000      -0.88080000
H        2.88110000      -0.23490000       1.19790000
H        2.31160000       1.29270000       1.86440000
H       -1.42540000      -2.04250000       3.74550000
H        1.08640000      -1.09490000       4.26680000
