16
Properties=species:S:1:pos:R:3 gdb_37342=T pbc="F F F"
N       -0.02080000       1.50380000      -0.02810000
C        1.43760000       1.71770000      -0.00640000
C        1.90080000       0.84720000       1.19750000
O        0.91390000       0.72360000       2.23300000
C        0.95660000      -0.27380000       1.20100000
C        0.01650000       0.03040000      -0.00110000
C        0.92060000      -0.25150000      -1.22040000
O        0.88360000       0.73510000      -2.25130000
C        1.86530000       0.87010000      -1.22390000
H       -0.40080000       1.82670000       0.85840000
H        1.72530000       2.76860000       0.00170000
H        2.93710000       0.77290000       1.51170000
H        1.20700000      -1.28120000       1.51810000
H       -0.97030000      -0.43170000       0.01170000
H        1.16800000      -1.26480000      -1.52040000
H        2.90500000       0.79740000      -1.52680000
