18
Properties=species:S:1:pos:R:3 gdb_19878=T pbc="F F F"
C       -0.36350000       1.51960000      -0.06460000
N        0.06200000       0.13310000       0.05920000
C        1.34950000      -0.40000000      -0.32130000
C        2.62320000       0.46290000      -0.34250000
C        2.92330000       0.83440000       1.11150000
N        1.94590000       1.74390000       1.73800000
C        1.84320000       0.28630000       1.97520000
C        0.85730000      -0.47490000       1.10630000
H        0.43790000       2.26080000      -0.03090000
H       -0.91180000       1.61370000      -1.00960000
H       -1.05890000       1.74720000       0.74880000
H        1.32020000      -1.24490000      -1.00830000
H        3.44550000      -0.14020000      -0.74190000
H        2.53190000       1.34810000      -0.98160000
H        3.95660000       0.88900000       1.44100000
H        2.37180000       2.18410000       2.55040000
H        2.03860000      -0.09560000       2.97190000
H        0.43670000      -1.37950000       1.54160000
