18
Properties=species:S:1:pos:R:3 gdb_42989=T pbc="F F F"
O        0.04760000       0.02390000      -0.10360000
C        0.01540000       1.22520000      -0.07260000
N       -1.20180000       1.99030000      -0.07510000
C       -1.38760000       2.69870000       1.22200000
C       -0.81780000       3.41390000       0.06130000
C        0.69850000       3.57970000      -0.04640000
C        1.20600000       2.14480000      -0.02820000
C        2.40250000       1.66350000       0.77800000
C        2.47550000       1.67980000      -0.71260000
H       -2.42540000       2.84120000       1.50530000
H       -0.72370000       2.42860000       2.04010000
H       -1.44710000       4.10870000      -0.48580000
H        0.94470000       4.07870000      -0.98920000
H        1.10470000       4.19320000       0.76440000
H        2.95050000       2.41700000       1.33380000
H        2.29820000       0.70230000       1.26890000
H        2.41440000       0.72920000      -1.23100000
H        3.07790000       2.44100000      -1.19670000
