17
Properties=species:S:1:pos:R:3 gdb_107369=T pbc="F F F"
O        0.11160000       1.32050000      -0.34720000
C        0.03600000       0.03290000       0.24060000
C       -1.36940000      -0.50390000       0.21610000
C       -2.49400000       0.18230000       0.96060000
C       -3.60910000      -0.87420000       1.04990000
O       -4.73280000      -0.67090000       1.42010000
C       -3.05150000      -2.24360000       0.61250000
C       -1.71050000      -1.92450000      -0.00020000
O       -1.80710000      -0.98120000      -1.07690000
H       -0.17980000       1.22950000      -1.26160000
H        0.70330000      -0.68410000      -0.26020000
H        0.37860000       0.14970000       1.27440000
H       -2.19200000       0.47380000       1.97440000
H       -2.85650000       1.08260000       0.45870000
H       -2.95360000      -2.89070000       1.49320000
H       -3.74200000      -2.73190000      -0.08050000
H       -0.95020000      -2.69250000      -0.11930000
