18
Properties=species:S:1:pos:R:3 gdb_43945=T pbc="F F F"
N        0.18820000       1.31300000      -0.58360000
C        0.07110000       0.14800000      -0.14950000
O        1.08170000      -0.78780000       0.22960000
C        0.02080000      -1.51740000       0.96380000
C       -0.85780000      -2.81310000       1.00100000
C       -1.99740000      -1.66950000       1.10520000
C       -1.72540000      -1.07590000       2.49070000
C       -0.17750000      -0.94650000       2.38550000
C       -1.02950000      -0.89560000       0.11100000
H        1.17010000       1.58460000      -0.66350000
H       -0.90100000      -3.36200000       0.06130000
H       -0.75720000      -3.49060000       1.85390000
H       -3.02510000      -1.89620000       0.82340000
H       -2.21870000      -0.11220000       2.63620000
H       -2.05030000      -1.74790000       3.28990000
H        0.36270000      -1.52780000       3.13700000
H        0.16140000       0.08980000       2.44750000
H       -1.07590000      -1.43810000      -0.83940000
