17
Properties=species:S:1:pos:R:3 gdb_111477=T pbc="F F F"
C        0.08810000       1.49690000       0.13690000
O       -0.15160000       0.09650000       0.13180000
C        0.56610000      -0.62120000       1.10890000
C        0.03870000      -2.02320000       1.28020000
C        0.06840000      -2.91580000       0.05030000
C        1.20710000      -2.93220000       1.01940000
O        2.34330000      -2.16190000       0.66140000
C        2.04430000      -0.83280000       0.67920000
O        2.83580000       0.00640000       0.36250000
H        1.13130000       1.73280000      -0.09380000
H       -0.56450000       1.92400000      -0.62760000
H       -0.17010000       1.93580000       1.11310000
H        0.56200000      -0.07700000       2.06660000
H       -0.67470000      -2.22730000       2.06740000
H       -0.60340000      -3.76650000       0.04950000
H        0.22660000      -2.45240000      -0.91700000
H        1.46580000      -3.79350000       1.62070000
