23
Properties=species:S:1:pos:R:3 gdb_72088=T pbc="F F F"
C        0.00350000       1.51820000       0.07930000
C        0.03720000       0.01080000       0.04470000
C        0.30200000      -0.69470000      -1.28220000
C        0.56210000      -2.15840000      -0.86340000
C        1.38990000      -2.00770000       0.43430000
C        0.71470000      -0.82790000       1.11830000
C       -0.79630000      -0.80340000       1.01180000
C       -1.55820000      -2.03850000       0.54700000
C       -0.77870000      -2.83900000      -0.53490000
H        0.93370000       1.94690000      -0.31390000
H       -0.82180000       1.91550000      -0.52450000
H       -0.12830000       1.89050000       1.10070000
H       -0.52920000      -0.60780000      -1.99320000
H        1.18730000      -0.25660000      -1.76170000
H        1.09160000      -2.72600000      -1.63360000
H        1.38630000      -2.92590000       1.03390000
H        2.43630000      -1.76650000       0.21050000
H        1.18980000      -0.35990000       1.97440000
H       -1.30520000      -0.22320000       1.77780000
H       -1.76790000      -2.67590000       1.41380000
H       -2.53690000      -1.73100000       0.16050000
H       -1.37560000      -2.92480000      -1.44960000
H       -0.59170000      -3.86220000      -0.19110000
