19
Properties=species:S:1:pos:R:3 gdb_133867=T pbc="F F F"
C       -0.91890000      -1.71490000       0.52030000
C        0.57050000      -1.56830000      -0.02470000
C        0.75490000      -0.44130000       1.02770000
C        1.52750000       0.86690000       0.77820000
C        0.57220000       1.54420000      -0.21950000
C       -0.88140000       1.31540000       0.37640000
C       -0.65860000      -0.18470000       0.39350000
C       -0.02210000      -0.49030000      -0.97930000
O        0.63710000       0.69540000      -1.38220000
H       -1.01290000      -2.12010000       1.53010000
H       -1.64840000      -2.16080000      -0.16150000
H        1.24670000      -2.39550000      -0.25560000
H        0.75550000      -0.77620000       2.06810000
H        2.52080000       0.75000000       0.33760000
H        1.62710000       1.42890000       1.71320000
H        0.81170000       2.56540000      -0.51940000
H       -1.65570000       1.66670000      -0.30990000
H       -0.99930000       1.79120000       1.35340000
H       -0.65400000      -0.85140000      -1.79570000
