18
Properties=species:S:1:pos:R:3 gdb_86504=T pbc="F F F"
C        0.01680000       1.48810000      -0.08320000
N       -0.02620000       0.05600000       0.10800000
C       -1.27730000      -0.54990000       0.59540000
C       -0.42000000      -1.56660000       1.41220000
C        0.72830000      -0.52500000       1.23190000
C       -0.83780000      -1.93020000       2.74270000
C       -1.18910000      -2.23540000       3.86120000
C       -1.58390000      -2.57270000       5.11820000
C       -1.93460000      -2.87290000       6.23440000
H        1.03030000       1.79420000      -0.36330000
H       -0.65630000       1.77330000      -0.89870000
H       -0.27700000       2.05610000       0.82000000
H       -1.85360000       0.10910000       1.26450000
H       -1.93890000      -0.95120000      -0.17830000
H       -0.21890000      -2.45950000       0.81340000
H        1.72380000      -0.90580000       0.98420000
H        0.79830000       0.14190000       2.10620000
H       -2.24270000      -3.13660000       7.21550000
