21
Properties=species:S:1:pos:R:3 gdb_77703=T pbc="F F F"
O        0.54410000       0.73690000      -0.59060000
C        0.13070000      -0.52160000      -0.11750000
C        0.23270000      -0.82220000       1.39140000
C        1.43580000      -1.24230000       2.17490000
C        0.83280000       0.12770000       2.38930000
C       -1.19950000      -1.38270000       1.41530000
C       -1.37830000      -0.81760000      -0.00410000
C       -2.44850000       0.13710000      -0.45310000
C       -2.32670000      -1.23160000      -1.08430000
H        0.08830000       1.40230000      -0.06230000
H        0.66350000      -1.25330000      -0.73500000
H        1.30390000      -1.98630000       2.95440000
H        2.38730000      -1.30220000       1.65550000
H        1.37980000       0.98240000       2.00290000
H        0.29140000       0.31440000       3.31140000
H       -1.23670000      -2.47670000       1.45460000
H       -1.86570000      -0.98220000       2.18570000
H       -3.28330000       0.32460000       0.21490000
H       -2.14120000       0.99240000      -1.04720000
H       -1.94850000      -1.28990000      -2.10040000
H       -3.08190000      -1.97380000      -0.84460000
