19
Properties=species:S:1:pos:R:3 gdb_52968=T pbc="F F F"
C       -0.02620000       1.45870000      -0.00720000
C       -0.01130000       0.00340000      -0.01570000
C       -0.00290000      -1.20330000      -0.03000000
C        0.03390000      -2.62330000      -0.01280000
C       -0.35570000      -3.48030000      -1.20200000
C       -1.13190000      -3.62890000       0.06960000
C       -0.39110000      -4.40100000       1.19180000
C        0.98390000      -4.88300000       0.81060000
C        0.76790000      -3.42640000       1.11280000
H        0.74250000       1.85640000       0.66510000
H        0.16690000       1.86930000      -1.00500000
H       -0.99230000       1.85140000       0.33100000
H       -0.87260000      -2.92130000      -1.97530000
H        0.29450000      -4.25620000      -1.59030000
H       -2.18490000      -3.38730000       0.12860000
H       -0.90210000      -4.76080000       2.07480000
H        1.49450000      -5.42050000       1.60460000
H        1.22830000      -5.25430000      -0.17820000
H        1.27380000      -2.91420000       1.92010000
