19
Properties=species:S:1:pos:R:3 gdb_3198=T pbc="F F F"
C       -0.03190000       1.56550000      -0.00790000
C        1.47620000       1.98140000      -0.02070000
C        2.21430000       0.62270000       0.00630000
C        2.03560000      -0.00290000       1.40930000
C        0.52750000      -0.41890000       1.42210000
C        0.03120000       0.02060000       0.02490000
C        1.27490000      -0.25640000      -0.84610000
H       -0.57550000       1.97150000       0.85060000
H       -0.54450000       1.91550000      -0.90930000
H        1.72250000       2.54080000      -0.92860000
H        1.74820000       2.61240000       0.83090000
H        3.25440000       0.67960000      -0.32160000
H        2.68550000      -0.87490000       1.53280000
H        2.28670000       0.70230000       2.20730000
H        0.41850000      -1.50010000       1.55210000
H       -0.03700000       0.06140000       2.22710000
H       -0.89600000      -0.46510000      -0.28640000
H        1.16890000       0.09610000      -1.87740000
H        1.56590000      -1.31190000      -0.86280000
