25
Properties=species:S:1:pos:R:3 gdb_59862=T pbc="F F F"
C        0.32740000       1.66770000      -0.08540000
C        0.06170000       0.15670000      -0.03970000
C        0.65990000      -0.54710000      -1.26430000
C        0.59180000      -0.46600000       1.25830000
C       -0.17330000      -0.08550000       2.51970000
O       -1.24990000       0.46850000       2.47990000
C        0.49390000      -0.43590000       3.85420000
C        1.31400000       0.78720000       4.31570000
C       -0.54530000      -0.84060000       4.90440000
H        1.40460000       1.87720000      -0.07340000
H       -0.08270000       2.10780000      -1.00020000
H       -0.13230000       2.17510000       0.76610000
H       -1.02460000       0.00830000      -0.04500000
H        1.75090000      -0.43670000      -1.29090000
H        0.43440000      -1.61920000      -1.26320000
H        0.26360000      -0.12270000      -2.19260000
H        0.54800000      -1.56510000       1.20270000
H        1.65710000      -0.23600000       1.40330000
H        1.19050000      -1.26610000       3.68100000
H        0.65270000       1.64070000       4.49520000
H        1.84230000       0.56090000       5.24680000
H        2.05920000       1.08620000       3.57140000
H       -1.07770000      -1.75000000       4.60900000
H       -0.06580000      -1.02560000       5.87050000
H       -1.28660000      -0.04690000       5.02560000
