13
Properties=species:S:1:pos:R:3 gdb_24742=T pbc="F F F"
O       -0.06480000      -0.04530000       0.00360000
C       -0.06710000       1.17440000       0.00680000
C        1.20440000       1.92730000       0.00010000
N        2.20610000       2.50430000      -0.00520000
C       -1.25530000       1.98580000       0.01690000
C       -1.46550000       3.36350000       0.02200000
C       -2.85540000       3.57370000       0.03180000
C       -3.46170000       2.32340000       0.03270000
N       -2.49160000       1.37920000       0.02390000
H       -0.68790000       4.11180000       0.01870000
H       -3.36920000       4.52190000       0.03760000
H       -4.50580000       2.05200000       0.03910000
H       -2.60440000       0.37780000       0.02210000
