22
Properties=species:S:1:pos:R:3 gdb_59141=T pbc="F F F"
C        0.22000000       0.73360000       1.41530000
C        0.21350000      -0.06230000       0.09970000
C        1.20250000      -1.23470000       0.16170000
C       -1.21260000      -0.54920000      -0.17670000
C       -2.29400000       0.02690000      -1.04560000
C       -1.91290000       0.20590000      -2.53060000
C       -0.57350000      -0.26590000      -2.95540000
N       -1.63030000      -1.26150000      -2.71100000
C       -1.87950000      -1.42450000      -1.22510000
H        1.21190000       1.15090000       1.61630000
H       -0.49500000       1.56180000       1.37970000
H       -0.04990000       0.09280000       2.26350000
H        0.53040000       0.63160000      -0.68330000
H        1.23690000      -1.78380000      -0.78440000
H        2.21480000      -0.88640000       0.39220000
H        0.90950000      -1.94620000       0.94260000
H       -1.67080000      -0.85710000       0.76760000
H       -3.22410000       0.42440000      -0.65920000
H       -2.57710000       0.71690000      -3.22070000
H       -0.35480000      -0.16970000      -4.01650000
H        0.29910000      -0.22790000      -2.32220000
H       -2.39580000      -2.33370000      -0.94180000
