18
Properties=species:S:1:pos:R:3 gdb_7107=T pbc="F F F"
C       -0.15650000       1.57630000      -0.18350000
C        0.14340000       0.09580000       0.06290000
C        0.69390000      -0.60750000      -1.17690000
C        0.99730000      -2.07940000      -0.97380000
O        0.81130000      -2.65660000       0.07290000
C        1.53850000      -2.84210000      -2.18780000
C        0.65120000      -4.03760000      -2.50530000
O        0.26880000      -4.31470000      -3.61060000
H        0.74470000       2.12280000      -0.48360000
H       -0.90060000       1.70660000      -0.97720000
H       -0.54800000       2.05340000       0.71980000
H        0.86170000      -0.01370000       0.88250000
H       -0.76220000      -0.42410000       0.39290000
H       -0.00470000      -0.52940000      -2.02390000
H        1.61530000      -0.12350000      -1.53440000
H        1.65390000      -2.22270000      -3.07910000
H        2.51980000      -3.24080000      -1.89720000
H        0.37820000      -4.64010000      -1.61430000
