12
Properties=species:S:1:pos:R:3 gdb_25538=T pbc="F F F"
N        0.00840000       1.23130000       0.25880000
C       -0.02660000       0.01270000      -0.02780000
O       -1.08030000      -0.73310000       0.46400000
C       -1.11280000      -2.03960000       0.19110000
C       -2.11960000      -2.85090000      -0.11640000
O       -1.61560000      -4.14610000      -0.18560000
C       -0.28100000      -4.09150000       0.06510000
O        0.48040000      -5.00020000       0.07030000
O        0.05000000      -2.77160000       0.31390000
H        0.82510000       1.67190000      -0.15980000
H        0.67390000      -0.57580000      -0.62400000
H       -3.16870000      -2.70270000      -0.28830000
