23
Properties=species:S:1:pos:R:3 gdb_76754=T pbc="F F F"
C        0.62210000       1.69170000       0.04050000
C        0.06600000       0.27210000       0.02510000
C        0.73280000      -0.74470000      -0.96880000
O        1.66030000      -0.29210000      -1.92560000
C        1.20120000      -1.62780000       0.22070000
C        1.01070000      -3.12460000       0.10470000
C        2.51890000      -1.14510000       0.90500000
C        1.69380000      -0.40770000       1.99830000
C        0.39540000      -0.69300000       1.21070000
H        1.70730000       1.72370000       0.18770000
H        0.40820000       2.19420000      -0.90800000
H        0.17140000       2.28220000       0.84510000
H       -1.01360000       0.33050000      -0.14440000
H       -0.02860000      -1.27390000      -1.55100000
H        2.36380000       0.18120000      -1.47040000
H        1.69540000      -3.54600000      -0.64190000
H        1.20570000      -3.63250000       1.05630000
H       -0.01090000      -3.37460000      -0.20380000
H        3.15080000      -1.95720000       1.27320000
H        3.15660000      -0.50200000       0.28820000
H        1.71420000      -0.93970000       2.95310000
H        1.94320000       0.63850000       2.19430000
H       -0.46760000      -1.04480000       1.77880000
