18
Properties=species:S:1:pos:R:3 gdb_121719=T pbc="F F F"
O        0.23160000       0.96240000      -0.82100000
C       -0.12350000      -0.32780000      -0.33530000
C       -1.49740000      -0.19420000       0.30440000
N       -2.46040000       0.30960000      -0.65740000
C       -3.65960000      -0.28460000      -0.88650000
O       -4.05310000      -1.27460000      -0.29210000
C       -4.51040000       0.36750000      -1.97590000
C       -4.94420000      -0.66600000      -3.00420000
O       -4.95260000      -0.46700000      -4.19050000
H        1.03310000       0.88450000      -1.34590000
H       -0.16570000      -1.06250000      -1.15260000
H        0.59620000      -0.68830000       0.41480000
H       -1.86180000      -1.16040000       0.65850000
H       -1.42770000       0.48470000       1.16410000
H       -2.16860000       1.09820000      -1.21210000
H       -5.42260000       0.72930000      -1.48290000
H       -4.03230000       1.20810000      -2.48420000
H       -5.26020000      -1.63170000      -2.56050000
