20
Properties=species:S:1:pos:R:3 gdb_91664=T pbc="F F F"
O       -0.04350000       1.40120000      -0.00160000
C       -0.03850000      -0.00840000       0.02970000
C        0.47290000      -0.63990000       1.38110000
C       -0.80250000      -1.40100000       1.80560000
C       -1.20790000      -2.08930000       0.46470000
C       -1.45520000      -0.62410000      -0.00120000
C       -1.88540000      -0.37080000       1.45320000
C       -3.21150000      -0.12460000       2.03050000
N       -2.16210000       0.93630000       2.04700000
H       -0.74210000       1.69610000       0.60110000
H        0.57070000      -0.32770000      -0.82070000
H        1.32720000      -1.30910000       1.24460000
H        0.76460000       0.15000000       2.07890000
H       -0.79610000      -1.93530000       2.75650000
H       -0.43630000      -2.66180000      -0.05690000
H       -2.12950000      -2.66970000       0.54150000
H       -2.08730000      -0.37050000      -0.85120000
H       -4.06320000       0.09000000       1.39080000
H       -3.46430000      -0.59650000       2.97650000
H       -1.75300000       0.99630000       2.97740000
