15
Properties=species:S:1:pos:R:3 gdb_28777=T pbc="F F F"
C       -0.01860000       1.52680000       0.04630000
C       -0.01000000       0.04020000      -0.01560000
C       -0.03220000      -0.85440000      -1.06380000
N       -0.01170000      -2.18360000      -0.65700000
C        0.02300000      -2.06750000       0.63580000
O        0.05740000      -2.93560000       1.67310000
C        0.08290000      -2.15170000       2.80930000
C        0.06520000      -0.83890000       2.49810000
N        0.02670000      -0.78240000       1.10660000
H        0.87840000       1.92940000       0.53370000
H       -0.05290000       1.93190000      -0.96790000
H       -0.88940000       1.91680000       0.58840000
H       -0.06280000      -0.60570000      -2.11440000
H        0.11230000      -2.67610000       3.74760000
H        0.07660000       0.02740000       3.13570000
