16
Properties=species:S:1:pos:R:3 gdb_45514=T pbc="F F F"
O       -0.00860000       0.01180000       0.24820000
C       -0.02380000       1.17650000      -0.01820000
N       -1.16070000       1.99610000      -0.14390000
C       -0.75640000       3.31670000      -0.19830000
C       -1.13910000       4.54100000       0.15790000
C        0.06290000       5.47240000       0.04890000
C        1.28030000       4.49050000       0.02090000
C        0.67330000       3.25810000      -0.64730000
O        1.09100000       1.93590000      -0.24270000
H       -2.02620000       1.66500000       0.25070000
H       -2.11200000       4.84930000       0.51570000
H        0.03810000       6.08640000      -0.86240000
H        0.12170000       6.17040000       0.89020000
H        2.15190000       4.89210000      -0.50050000
H        1.57100000       4.23360000       1.04400000
H        0.76860000       3.29990000      -1.74160000
