19
Properties=species:S:1:pos:R:3 gdb_53396=T pbc="F F F"
C        0.38390000       1.57750000      -0.40740000
C        0.25070000       0.14860000      -0.16490000
C        0.13710000      -1.03430000       0.03320000
C       -0.01010000      -2.45000000       0.28350000
C       -0.29760000      -2.95620000       1.73110000
C       -1.22640000      -4.04310000       1.13870000
C       -1.31750000      -3.21720000      -0.18960000
C       -2.50850000      -2.39970000      -0.29510000
C       -3.50560000      -1.73190000      -0.37250000
H        1.30060000       1.80660000      -0.96230000
H       -0.46090000       1.95960000      -0.99120000
H        0.41660000       2.14020000       0.53240000
H        0.84800000      -2.99550000      -0.12490000
H        0.56290000      -3.27810000       2.32070000
H       -0.85910000      -2.20840000       2.29490000
H       -0.70630000      -4.99020000       0.97290000
H       -2.16900000      -4.23730000       1.65070000
H       -1.18140000      -3.79240000      -1.10990000
H       -4.38230000      -1.13790000      -0.44690000
