14
Properties=species:S:1:pos:R:3 gdb_24504=T pbc="F F F"
N       -0.03110000       1.32850000       0.00980000
C        1.27330000       1.75770000      -0.00050000
N        2.15130000       0.78830000      -0.01420000
C        1.38780000      -0.36810000      -0.01310000
C        0.00910000      -0.05080000       0.00200000
N       -1.01590000      -0.88990000       0.00730000
C       -0.65080000      -2.17670000      -0.00310000
C        0.67910000      -2.62610000      -0.01840000
C        1.73240000      -1.71720000      -0.02370000
H       -0.86280000       1.89500000       0.02090000
H        1.51480000       2.81160000       0.00290000
H       -1.46230000      -2.89940000       0.00080000
H        0.87270000      -3.69270000      -0.02600000
H        2.76900000      -2.03480000      -0.03540000
