17
Properties=species:S:1:pos:R:3 gdb_23205=T pbc="F F F"
O        0.52590000      -0.07290000       0.97570000
C       -0.18440000       0.48100000      -0.12480000
C       -1.51330000      -0.20440000      -0.19320000
N       -2.30070000      -0.49800000       1.04660000
C       -1.93620000      -1.60570000       0.14110000
C       -2.99650000      -1.60690000      -0.97960000
C       -2.49680000      -0.19950000      -1.31600000
N       -2.62400000       0.62340000      -2.26930000
O       -3.59280000       0.18270000      -3.19170000
H        1.30790000       0.46320000       1.13290000
H       -0.33510000       1.56430000      -0.00030000
H        0.35330000       0.32980000      -1.07300000
H       -1.59630000      -0.49400000       1.78770000
H       -1.32200000      -2.43140000       0.47400000
H       -2.79850000      -2.30680000      -1.79580000
H       -4.03380000      -1.69980000      -0.65060000
H       -3.58260000       0.88790000      -3.84750000
