18
Properties=species:S:1:pos:R:3 gdb_101221=T pbc="F F F"
O        0.27120000       1.39030000       0.20010000
C        0.16610000      -0.01040000       0.08200000
C       -1.30230000      -0.44840000       0.12530000
O       -2.04420000       0.27970000      -0.84950000
C       -1.47800000      -1.94680000      -0.06070000
C       -2.91010000      -2.50580000      -0.19730000
C       -2.46710000      -2.89070000      -1.59110000
N       -2.98610000      -3.49280000      -2.55720000
O       -1.20100000      -2.33290000      -1.45720000
H       -0.42060000       1.75120000      -0.36930000
H        0.62210000      -0.37920000      -0.85300000
H        0.72020000      -0.45360000       0.91730000
H       -1.72760000      -0.16130000       1.09480000
H       -1.80040000      -0.08950000      -1.70910000
H       -0.82600000      -2.50980000       0.61390000
H       -3.17390000      -3.33900000       0.45450000
H       -3.69390000      -1.74730000      -0.17820000
H       -2.34280000      -3.56410000      -3.34710000
