20
Properties=species:S:1:pos:R:3 gdb_111508=T pbc="F F F"
C       -0.14470000       1.38630000       0.05880000
O       -0.03890000      -0.02580000       0.02710000
C        0.61590000      -0.54690000      -1.11270000
C        1.14870000      -1.94800000      -0.82900000
C        0.36700000      -2.81640000       0.08070000
N        0.20360000      -2.97290000      -1.36940000
C       -0.93870000      -2.21440000      -1.92420000
C       -0.35300000      -0.83500000      -2.28790000
O       -1.29620000       0.20110000      -2.46320000
H        0.84910000       1.85830000       0.00550000
H       -0.76550000       1.77130000      -0.75550000
H       -0.60110000       1.64430000       1.01790000
H        1.42360000       0.13160000      -1.41900000
H        2.20390000      -2.13900000      -0.99830000
H        0.86110000      -3.64890000       0.57430000
H       -0.43420000      -2.35190000       0.64800000
H       -1.33420000      -2.74390000      -2.79660000
H       -1.75340000      -2.08500000      -1.20150000
H        0.27120000      -0.95580000      -3.18820000
H       -1.81210000       0.01040000      -3.25220000
