21
Properties=species:S:1:pos:R:3 gdb_98439=T pbc="F F F"
C       -0.07210000       1.55280000       0.06030000
C        0.05230000       0.03310000      -0.00080000
C        0.83670000      -0.45510000      -1.20510000
O        1.36550000       0.30480000      -1.98730000
C        0.90090000      -1.96760000      -1.43510000
O        0.65400000      -2.60420000      -0.20270000
C       -0.00070000      -2.36070000      -2.65890000
C        1.26830000      -2.36120000      -3.55050000
C        2.14270000      -2.39990000      -2.26990000
H        0.91320000       2.02490000       0.08770000
H       -0.59170000       1.94170000      -0.81970000
H       -0.62760000       1.85720000       0.95190000
H        0.54410000      -0.37230000       0.89220000
H       -0.92850000      -0.45950000      -0.01170000
H        0.61760000      -3.55310000      -0.35780000
H       -0.40690000      -3.36680000      -2.50740000
H       -0.82220000      -1.69000000      -2.92270000
H        1.37380000      -3.18960000      -4.25340000
H        1.38820000      -1.41770000      -4.08330000
H        3.00880000      -1.73820000      -2.22960000
H        2.44520000      -3.41620000      -1.99760000
