22
Properties=species:S:1:pos:R:3 gdb_121308=T pbc="F F F"
C       -0.05190000       1.63240000       0.29570000
C        0.03340000       0.12200000       0.06090000
C        0.71570000      -0.61610000       1.21760000
C        0.78000000      -2.15000000       1.03800000
C        1.58800000      -2.85740000       2.14360000
C        0.51040000      -3.18010000       3.18550000
O       -0.70010000      -3.36180000       2.43290000
C       -0.58780000      -2.79370000       1.19390000
N       -1.50560000      -2.80860000       0.32450000
H        0.94180000       2.07560000       0.42960000
H       -0.52940000       2.13800000      -0.54930000
H       -0.63810000       1.86190000       1.19280000
H       -0.96620000      -0.29540000      -0.09460000
H        0.59060000      -0.07660000      -0.86420000
H        1.74370000      -0.24630000       1.32930000
H        0.20270000      -0.37720000       2.15970000
H        1.16740000      -2.37020000       0.04040000
H        2.02820000      -3.78390000       1.76270000
H        2.39320000      -2.24190000       2.55150000
H        0.69730000      -4.09850000       3.74700000
H        0.36530000      -2.35980000       3.89920000
H       -2.33240000      -3.28640000       0.68850000
