23
Properties=species:S:1:pos:R:3 gdb_118879=T pbc="F F F"
C       -0.21010000       1.52760000       0.13440000
C       -0.04070000       0.02150000       0.00930000
O       -1.32460000      -0.55140000      -0.15840000
C       -1.40590000      -1.96130000      -0.04200000
C       -0.59500000      -2.68220000      -1.11670000
C       -1.19100000      -2.55890000       1.40370000
C       -2.64140000      -3.04950000       1.38000000
C       -3.56980000      -1.88280000       1.20390000
C       -2.86290000      -2.42930000      -0.00230000
H        0.76330000       2.01490000       0.24640000
H       -0.70010000       1.93120000      -0.75630000
H       -0.82670000       1.77460000       1.00340000
H        0.61060000      -0.21390000      -0.84640000
H        0.44860000      -0.38410000       0.90920000
H        0.48070000      -2.52630000      -0.98930000
H       -0.78320000      -3.75890000      -1.07430000
H       -0.88250000      -2.32080000      -2.10970000
H       -0.44610000      -3.35810000       1.42010000
H       -0.95300000      -1.83490000       2.18940000
H       -2.98390000      -4.00890000       1.74720000
H       -4.62900000      -2.11380000       1.25560000
H       -3.30110000      -0.90270000       1.58730000
H       -3.39860000      -2.82430000      -0.85780000
