15
Properties=species:S:1:pos:R:3 gdb_15566=T pbc="F F F"
C        0.11460000       1.56760000      -0.10610000
C       -0.02010000       0.05780000       0.06340000
O        0.51700000      -0.61900000      -1.07530000
C        1.44430000      -1.62350000      -0.68750000
C        1.59620000      -1.47120000       0.79510000
C        0.76460000      -0.52250000       1.23110000
C        0.58170000      -0.09290000       2.56990000
N        0.40190000       0.28490000       3.65020000
H        1.16710000       1.85160000      -0.19370000
H       -0.40990000       1.88540000      -1.01090000
H       -0.32290000       2.08960000       0.75050000
H       -1.08670000      -0.19930000       0.16840000
H        1.06850000      -2.62570000      -0.95260000
H        2.39410000      -1.48310000      -1.22460000
H        2.27230000      -2.06140000       1.39920000
