19
Properties=species:S:1:pos:R:3 gdb_120616=T pbc="F F F"
C       -0.04190000       1.34270000       0.05090000
O       -0.04570000      -0.06290000      -0.04780000
C        0.79680000      -0.54160000      -1.07050000
C        0.70970000      -2.04700000      -1.05950000
O       -0.20920000      -2.68480000      -1.93500000
C        1.19690000      -2.89180000      -2.17750000
C        1.79680000      -2.35320000      -3.45180000
C        1.63040000      -4.27370000      -1.77630000
O        2.55670000      -4.86280000      -2.27030000
H        0.96450000       1.73300000       0.27120000
H       -0.39970000       1.81770000      -0.87570000
H       -0.71350000       1.61220000       0.86890000
H        0.48970000      -0.14940000      -2.05100000
H        1.84110000      -0.22850000      -0.89220000
H        0.72920000      -2.46520000      -0.05090000
H        1.43190000      -1.35120000      -3.67850000
H        2.88670000      -2.33130000      -3.36920000
H        1.54650000      -3.01220000      -4.28800000
H        1.00040000      -4.71480000      -0.97220000
