17
Properties=species:S:1:pos:R:3 gdb_20838=T pbc="F F F"
C        0.06560000       1.47150000      -0.39620000
C       -0.04160000       0.08090000       0.25330000
C       -1.41200000      -0.51220000       0.14140000
N       -2.37440000      -0.25530000       1.03550000
N       -3.43130000      -0.91460000       0.57230000
C       -4.68480000      -0.96090000       1.29520000
N       -3.23910000      -1.59440000      -0.55110000
C       -1.96090000      -1.34880000      -0.84540000
H        1.07890000       1.87190000      -0.29310000
H       -0.17590000       1.42770000      -1.46290000
H       -0.62950000       2.17170000       0.07600000
H        0.68010000      -0.59900000      -0.21300000
H        0.22580000       0.15110000       1.31250000
H       -4.89850000       0.02950000       1.69910000
H       -5.46350000      -1.26280000       0.59580000
H       -4.63180000      -1.68090000       2.11780000
H       -1.50510000      -1.76890000      -1.72830000
