16
Properties=species:S:1:pos:R:3 gdb_49296=T pbc="F F F"
N        0.26160000       1.20050000       0.72430000
C        0.17300000       0.03570000       0.22470000
O        1.28390000      -0.71510000      -0.03140000
C        1.15250000      -1.82580000      -0.92800000
C       -0.02050000      -2.72640000      -0.55370000
C       -1.23990000      -1.88540000      -0.35210000
C       -1.14220000      -0.58680000      -0.02610000
C       -2.37610000       0.23510000       0.15320000
O       -3.49060000      -0.21120000       0.00240000
H        1.24250000       1.45960000       0.84390000
H        1.01990000      -1.44750000      -1.95020000
H        2.10720000      -2.35280000      -0.87660000
H       -0.18170000      -3.47250000      -1.34000000
H        0.19970000      -3.28860000       0.36520000
H       -2.23120000      -2.31660000      -0.46170000
H       -2.19610000       1.28710000       0.43420000
