15
Properties=species:S:1:pos:R:3 gdb_98049=T pbc="F F F"
C        0.00660000       1.45080000       0.01000000
C        0.01030000       0.00020000       0.00230000
C        0.01170000      -1.20710000      -0.00410000
C        0.01740000      -2.64310000      -0.01180000
O       -0.98400000      -3.33200000      -0.00550000
C        1.41370000      -3.31000000      -0.02920000
O        2.42060000      -2.65280000      -0.03590000
C        1.37530000      -4.82710000      -0.03670000
O        2.68930000      -5.31790000      -0.05240000
H        1.02510000       1.85130000       0.00120000
H       -0.52370000       1.83980000      -0.86610000
H       -0.50480000       1.83040000       0.90120000
H        0.79820000      -5.14810000       0.84620000
H        0.78060000      -5.13900000      -0.91110000
H        2.64530000      -6.27840000      -0.05750000
