21
Properties=species:S:1:pos:R:3 gdb_64006=T pbc="F F F"
C       -0.10270000       1.55240000      -0.10000000
C       -0.02670000       0.02590000      -0.03460000
O       -1.33540000      -0.53290000      -0.10950000
C        0.94090000      -0.53150000      -1.15290000
C        2.28830000      -0.64780000      -0.45210000
C        2.08080000      -0.71350000       0.85930000
C        2.61810000      -0.36150000       2.22740000
C        1.21570000       0.31510000       2.47500000
C        0.65000000      -0.50250000       1.25560000
H        0.89210000       2.00400000      -0.03960000
H       -0.54920000       1.86920000      -1.05070000
H       -0.71790000       1.94370000       0.71530000
H       -1.76310000      -0.18320000      -0.89840000
H        0.55990000      -1.50040000      -1.50220000
H        0.97970000       0.13140000      -2.02660000
H        3.23900000      -0.60020000      -0.97090000
H        2.75900000      -1.23290000       2.87590000
H        3.51270000       0.26380000       2.28200000
H        0.75000000       0.13590000       3.44650000
H        1.25120000       1.38960000       2.28530000
H        0.12430000      -1.40200000       1.59450000
