19
Properties=species:S:1:pos:R:3 gdb_6103=T pbc="F F F"
C       -0.39740000       1.44670000       0.01810000
N       -0.30860000      -0.00820000       0.13650000
H       -0.76290000      -0.96950000      -1.29000000
C        0.97850000      -0.40750000       0.70650000
C       -1.45260000      -0.56840000       0.87970000
C       -1.67810000      -2.05870000       0.58700000
C       -1.94990000      -2.40320000      -0.88350000
O       -1.28220000      -1.66140000      -1.77910000
O       -2.68730000      -3.29420000      -1.21320000
H        0.43950000       1.81640000      -0.58090000
H       -1.32810000       1.72070000      -0.48560000
H       -0.36860000       1.95210000       0.99840000
H        1.11580000      -0.02100000       1.73070000
H        1.06330000      -1.49590000       0.73490000
H        1.78920000      -0.02350000       0.08150000
H       -1.33370000      -0.41270000       1.96500000
H       -2.34350000      -0.00980000       0.57470000
H       -0.81180000      -2.65040000       0.90730000
H       -2.52850000      -2.42450000       1.16600000
