11
Properties=species:S:1:pos:R:3 gdb_20525=T pbc="F F F"
C       -0.03760000       1.50010000       0.01010000
C        0.03750000      -0.00700000       0.00180000
O        1.06450000      -0.63870000      -0.00970000
C       -1.27310000      -0.73480000       0.00950000
N       -2.44760000      -0.16600000       0.02260000
O       -3.33000000      -1.16820000       0.02500000
N       -2.61020000      -2.39740000       0.01280000
N       -1.39510000      -2.11720000       0.00380000
H        0.97330000       1.90720000       0.00360000
H       -0.59490000       1.85810000      -0.86170000
H       -0.58000000       1.84910000       0.89490000
