18
Properties=species:S:1:pos:R:3 gdb_124873=T pbc="F F F"
C       -0.26170000       1.37210000      -0.64190000
C       -0.02100000       0.00460000      -0.02780000
C        1.02050000      -0.87240000      -0.65040000
N        1.25760000      -0.24840000       0.65900000
C       -1.18530000      -0.62320000       0.64800000
C       -1.26480000      -1.40790000       1.78280000
C       -2.63350000      -1.72300000       1.90850000
N       -3.36350000      -1.18350000       0.93630000
N       -2.46070000      -0.52100000       0.18380000
H        0.65480000       1.75160000      -1.10420000
H       -1.02610000       1.33980000      -1.42700000
H       -0.59080000       2.09060000       0.11590000
H        0.89620000      -1.95070000      -0.62440000
H        1.54970000      -0.49020000      -1.52030000
H        1.86710000       0.55980000       0.55950000
H       -0.44070000      -1.68750000       2.41670000
H       -3.11770000      -2.31670000       2.67030000
H       -2.78250000      -0.02800000      -0.63110000
