19
Properties=species:S:1:pos:R:3 gdb_61685=T pbc="F F F"
O       -0.04910000       1.48380000       0.03800000
C        0.01550000       0.08640000      -0.06640000
C        0.79370000      -0.34540000      -1.32460000
C        0.07050000       0.09190000      -2.58850000
C        0.56140000      -0.48170000      -3.93640000
C       -0.85670000      -1.07820000      -4.03590000
O       -1.21040000      -0.57470000      -2.73000000
C        0.64300000      -0.50720000       1.17410000
O        1.03590000       0.18350000       2.08390000
H        0.35090000       1.69930000       0.89530000
H       -0.99930000      -0.34170000      -0.15020000
H        1.79360000       0.10520000      -1.29870000
H        0.90720000      -1.43690000      -1.33610000
H       -0.05880000       1.18060000      -2.57790000
H        0.82810000       0.25210000      -4.69780000
H        1.36480000      -1.21630000      -3.84820000
H       -1.48990000      -0.64770000      -4.82150000
H       -0.92570000      -2.17120000      -4.08700000
H        0.72800000      -1.61300000       1.20190000
