18
Properties=species:S:1:pos:R:3 gdb_26142=T pbc="F F F"
C        0.04480000       1.49670000      -0.02020000
N       -0.00810000       0.05090000       0.15140000
C        0.83380000      -0.44370000       1.23260000
C       -1.27100000      -0.53270000       0.04260000
C       -1.81440000      -1.36620000      -0.90670000
O       -1.20020000      -1.83230000      -2.01590000
N       -3.10430000      -1.70240000      -0.61490000
C       -3.37760000      -1.08240000       0.51810000
N       -2.32240000      -0.36570000       0.96400000
H        1.08280000       1.80880000      -0.17980000
H       -0.54020000       1.78000000      -0.89810000
H       -0.34040000       2.06170000       0.84970000
H        0.53090000      -0.08070000       2.23300000
H        0.80770000      -1.53560000       1.24280000
H        1.86830000      -0.12310000       1.06730000
H       -1.85060000      -2.38620000      -2.46440000
H       -4.31990000      -1.12640000       1.04360000
H       -2.28700000       0.18950000       1.80200000
