17
Properties=species:S:1:pos:R:3 gdb_32331=T pbc="F F F"
C        0.19530000       1.00260000       0.61550000
O       -0.42260000       0.33000000      -0.48690000
C        0.40660000      -0.43070000      -1.23190000
C        0.68890000      -1.74720000      -1.15840000
N        1.56670000      -2.02420000      -2.21260000
C        1.82760000      -0.89310000      -2.96510000
O        2.52080000      -0.78370000      -3.96060000
N        1.10070000       0.10920000      -2.32040000
C        1.02010000       1.46100000      -2.82430000
H        0.66360000       0.28130000       1.29470000
H        0.95250000       1.71900000       0.27500000
H       -0.60100000       1.53790000       1.13560000
H        0.34610000      -2.49560000      -0.46710000
H        1.93540000      -2.92340000      -2.46440000
H        1.51020000       1.46310000      -3.79960000
H       -0.02220000       1.77370000      -2.93160000
H        1.53580000       2.17250000      -2.16950000
