17
Properties=species:S:1:pos:R:3 gdb_9395=T pbc="F F F"
C       -0.02150000       1.38350000       0.05230000
O       -0.03070000      -0.02360000      -0.01120000
C        0.65960000      -0.52620000      -1.13070000
C        0.58860000      -2.04830000      -1.07470000
C        1.32220000      -2.70080000      -2.25640000
O        2.69470000      -2.35410000      -2.32600000
C        1.14880000      -4.16870000      -2.22670000
N        1.03430000      -5.31730000      -2.17620000
H        1.00280000       1.78270000       0.11790000
H       -0.50950000       1.83490000      -0.82590000
H       -0.57250000       1.67290000       0.95010000
H        0.20400000      -0.15820000      -2.06750000
H        1.70880000      -0.19270000      -1.13120000
H        1.02450000      -2.40120000      -0.13260000
H       -0.45920000      -2.36630000      -1.07830000
H        0.89150000      -2.33690000      -3.19680000
H        3.13520000      -2.70970000      -1.54490000
