17
Properties=species:S:1:pos:R:3 gdb_42564=T pbc="F F F"
O        0.08170000       0.10340000       0.13560000
C        0.04270000       1.30050000       0.12840000
C       -1.05910000       2.31650000       0.07720000
C       -0.12990000       3.20060000      -0.77960000
C       -0.45600000       3.63280000       0.61210000
C        0.94600000       3.31540000       1.09440000
C        1.94520000       4.30870000       1.59300000
C        1.50130000       3.14830000       2.47210000
C        1.08900000       2.40790000      -0.14060000
H       -2.12580000       2.17130000      -0.02450000
H       -0.30630000       3.60750000      -1.76270000
H       -1.11580000       4.43030000       0.93190000
H        2.94960000       4.28230000       1.18290000
H        1.59610000       5.30410000       1.85040000
H        0.85790000       3.36870000       3.31760000
H        2.20840000       2.34430000       2.64820000
H        2.04930000       2.18320000      -0.59660000
