17
Properties=species:S:1:pos:R:3 gdb_67031=T pbc="F F F"
O        0.14440000       1.40340000       0.09220000
C        0.08250000       0.03300000       0.01530000
C       -1.03340000      -0.97450000       0.07890000
C       -0.52650000      -1.67550000      -1.17470000
C        0.83330000      -0.90730000      -1.02380000
O        1.31150000      -0.36560000      -2.22030000
C        1.75200000      -1.75510000      -0.17840000
C        1.27670000      -1.78730000       1.07340000
C        0.09510000      -0.88920000       1.18480000
H       -0.23920000       1.76320000      -0.71640000
H       -2.06600000      -0.86480000       0.38710000
H       -0.47660000      -2.76810000      -1.19980000
H       -1.05130000      -1.29950000      -2.05720000
H        2.13580000       0.09320000      -2.02300000
H        2.55470000      -2.35290000      -0.59340000
H        1.64330000      -2.40290000       1.88540000
H       -0.26450000      -0.52910000       2.14170000
