23
Properties=species:S:1:pos:R:3 gdb_120642=T pbc="F F F"
C       -0.23840000       1.37810000      -0.11180000
C       -0.31740000      -0.12280000      -0.32610000
O       -1.37250000      -0.63810000       0.48660000
C       -1.52670000      -2.02320000       0.35510000
C       -2.84270000      -2.58030000       0.83560000
C       -2.55140000      -2.48650000      -0.65330000
O       -3.19460000      -1.47520000      -1.38060000
C       -2.35210000      -3.73060000      -1.48370000
C       -3.67270000      -4.38010000      -1.91380000
H        0.57680000       1.80300000      -0.70490000
H       -1.17150000       1.86400000      -0.41220000
H       -0.05790000       1.60640000       0.94240000
H       -0.50660000      -0.36370000      -1.38200000
H        0.63040000      -0.60580000      -0.04180000
H       -0.61300000      -2.59770000       0.51310000
H       -2.83970000      -3.54910000       1.32420000
H       -3.54870000      -1.86430000       1.24320000
H       -2.99890000      -0.64770000      -0.92080000
H       -1.76440000      -3.46330000      -2.37080000
H       -1.75130000      -4.44450000      -0.90760000
H       -3.49190000      -5.26640000      -2.52950000
H       -4.26190000      -4.68690000      -1.04330000
H       -4.27500000      -3.67620000      -2.49400000
