15
Properties=species:S:1:pos:R:3 gdb_34353=T pbc="F F F"
N       -0.02550000      -1.16780000      -0.01330000
C       -0.01730000      -0.01100000       0.00260000
C       -0.01280000       1.42650000       0.03390000
C       -0.37400000       2.22340000      -1.25560000
O        0.87660000       2.95140000      -1.20920000
C        1.29350000       2.27950000      -0.02080000
C        0.90680000       2.92580000       1.33560000
N       -0.42660000       3.54250000       1.16050000
C       -0.33310000       2.09710000       1.40480000
H       -0.43600000       1.59710000      -2.15070000
H       -1.24030000       2.88180000      -1.16890000
H        2.29040000       1.83770000      -0.07650000
H        1.57690000       3.25750000       2.11830000
H       -0.67440000       3.99010000       2.04150000
H       -0.82220000       1.61470000       2.24080000
