18
Properties=species:S:1:pos:R:3 gdb_65829=T pbc="F F F"
C        0.26660000       1.29930000       0.05560000
C       -0.14300000      -0.18870000      -0.00070000
C        0.59070000      -0.89870000      -1.18730000
N        1.83410000      -1.32950000      -0.58030000
C        1.80060000      -1.45030000       0.78470000
O        2.68700000      -1.88420000       1.48480000
C        0.42380000      -0.94810000       1.23030000
C       -1.59200000      -0.30620000      -0.12430000
C       -2.78640000      -0.39580000      -0.22790000
H        1.35560000       1.38960000       0.11410000
H       -0.08170000       1.83020000      -0.83440000
H       -0.16930000       1.78260000       0.93380000
H       -0.00400000      -1.74200000      -1.56130000
H        0.76340000      -0.20750000      -2.01800000
H        2.60130000      -1.71940000      -1.10440000
H        0.50350000      -0.32660000       2.12370000
H       -0.19210000      -1.81750000       1.48120000
H       -3.84160000      -0.47720000      -0.31560000
