17
Properties=species:S:1:pos:R:3 gdb_66064=T pbc="F F F"
O        0.03980000       1.46040000       0.14450000
C        0.04290000       0.07170000       0.07920000
C        0.19020000      -0.57510000       1.48640000
C       -1.34740000      -0.73760000       1.56870000
C       -1.41930000      -0.58210000       0.01850000
C       -2.47610000       0.19190000      -0.58490000
C       -3.35180000       0.84700000      -1.08480000
C        0.95100000      -0.40450000      -1.02470000
O        1.46800000       0.35900000      -1.80420000
H        0.43530000       1.76700000      -0.68660000
H        0.71490000      -1.53460000       1.44630000
H        0.67370000       0.07330000       2.21750000
H       -1.74400000      -1.66640000       1.98260000
H       -1.81920000       0.11040000       2.06700000
H       -1.35040000      -1.56900000      -0.45440000
H       -4.12580000       1.42680000      -1.52330000
H        1.09440000      -1.50290000      -1.09990000
