18
Properties=species:S:1:pos:R:3 gdb_85303=T pbc="F F F"
C       -0.26250000       1.55680000       0.16190000
C        0.06630000       0.07840000       0.01310000
O        0.90280000      -0.08580000      -1.16560000
C        2.17800000      -0.55220000      -1.02420000
N        2.98960000      -0.65240000      -1.98790000
C        2.52740000      -0.97550000       0.37730000
C        1.39840000      -1.87210000       0.93040000
C        0.77690000      -0.49680000       1.23550000
O        2.10620000       0.09400000       1.27940000
H        0.63920000       2.11180000       0.43250000
H       -0.65510000       1.95300000      -0.77760000
H       -1.01640000       1.70380000       0.94220000
H       -0.84500000      -0.50020000      -0.18490000
H        2.55310000      -0.33230000      -2.85570000
H        3.57660000      -1.24820000       0.47360000
H        0.88160000      -2.54610000       0.24460000
H        1.70410000      -2.39460000       1.83710000
H        0.20630000      -0.33970000       2.15460000
