17
Properties=species:S:1:pos:R:3 gdb_60720=T pbc="F F F"
C       -0.25230000       1.55500000       0.15230000
N       -0.09040000       0.10210000       0.00460000
C        0.12130000      -0.64880000       1.16820000
N        0.18310000      -0.09590000       2.31020000
C       -0.16280000      -0.60000000      -1.18150000
O       -0.18940000      -1.82230000      -1.21790000
C       -0.17110000       0.14790000      -2.51560000
N       -0.69540000      -0.64750000      -3.50020000
N        0.29930000       1.33270000      -2.61080000
H        0.69820000       2.07060000       0.00800000
H       -0.95990000       1.92680000      -0.58300000
H       -0.61160000       1.73010000       1.16560000
H        0.22350000      -1.71060000       0.95100000
H        0.34720000      -0.80130000       3.02610000
H       -0.72510000      -1.63210000      -3.27380000
H       -0.49540000      -0.40660000      -4.45740000
H        0.28690000       1.66040000      -3.57920000
