15
Properties=species:S:1:pos:R:3 gdb_25230=T pbc="F F F"
O       -0.01160000      -0.03340000       0.00430000
C        0.03400000       1.17270000       0.01020000
C       -1.21610000       2.10430000       0.03150000
C       -0.72240000       3.58510000       0.03140000
C        0.75580000       3.38560000       0.00920000
C        1.18300000       2.08390000      -0.00270000
N        2.56100000       2.00300000      -0.02340000
C        2.94840000       3.25200000      -0.02310000
N        1.88660000       4.14520000      -0.00350000
H       -1.83800000       1.87770000      -0.83890000
H       -1.81390000       1.86970000       0.91650000
H       -1.08650000       4.14080000      -0.84050000
H       -1.06130000       4.13260000       0.91850000
H        3.97170000       3.59910000      -0.03640000
H        1.95670000       5.14970000       0.00000000
