19
Properties=species:S:1:pos:R:3 gdb_62964=T pbc="F F F"
C       -0.03080000       1.56230000      -0.11490000
C        0.03510000       0.04990000       0.00700000
O       -1.25250000      -0.54530000      -0.03140000
C        1.05840000      -0.68910000      -0.89930000
N        2.39750000      -0.17450000      -0.52570000
C        1.76680000      -1.25530000       0.28020000
C        0.79900000      -0.56840000       1.21850000
C        0.92750000      -0.05280000       2.59440000
N        0.13250000      -1.26530000       2.30220000
H        0.97550000       1.98460000      -0.09640000
H       -0.50770000       1.85420000      -1.06010000
H       -0.61600000       1.99190000       0.70490000
H       -1.75950000      -0.11080000      -0.72530000
H        0.85990000      -1.12670000      -1.87030000
H        3.07300000      -0.61960000      -1.14690000
H        2.24280000      -2.21730000       0.42010000
H        1.83580000      -0.22630000       3.16510000
H        0.40600000       0.86930000       2.84110000
H       -0.86250000      -1.05300000       2.26760000
