17
Properties=species:S:1:pos:R:3 gdb_52489=T pbc="F F F"
C        0.14230000       1.60620000      -0.12090000
C        0.07360000       0.15710000      -0.07800000
C        0.01500000      -1.05150000      -0.04220000
C       -0.05060000      -2.40820000      -0.00260000
C       -0.11160000      -3.61770000       0.03770000
C       -0.16470000      -5.06530000       0.08170000
C        0.31750000      -5.76640000       1.38480000
C       -1.10980000      -6.34240000       1.43420000
O       -1.50440000      -5.59920000       0.26020000
H        1.08990000       1.96890000       0.29340000
H        0.06370000       1.97790000      -1.14880000
H       -0.66930000       2.05790000       0.46070000
H        0.29140000      -5.47830000      -0.82870000
H        1.12690000      -6.48430000       1.25000000
H        0.56690000      -5.07710000       2.19100000
H       -1.18590000      -7.42480000       1.27380000
H       -1.70990000      -6.06900000       2.30930000
