17
Properties=species:S:1:pos:R:3 gdb_1656=T pbc="F F F"
C       -0.08240000       1.59190000      -0.08540000
C        0.04250000       0.05620000      -0.03810000
C       -1.33520000      -0.61810000       0.04730000
C        0.78420000      -0.41190000      -1.28130000
O        0.28780000      -0.38500000      -2.38920000
C        2.20980000      -0.91550000      -1.12510000
O        2.77620000      -1.25040000      -2.35380000
H        0.89770000       2.07760000      -0.12570000
H       -0.64990000       1.89700000      -0.96920000
H       -0.60330000       1.95590000       0.80500000
H        0.63930000      -0.21980000       0.84050000
H       -1.91680000      -0.39920000      -0.85200000
H       -1.24580000      -1.70530000       0.13580000
H       -1.88560000      -0.25110000       0.91860000
H        2.79600000      -0.13660000      -0.60770000
H        2.18470000      -1.77980000      -0.43770000
H        2.06940000      -1.09510000      -3.00200000
