17
Properties=species:S:1:pos:R:3 gdb_38058=T pbc="F F F"
C       -0.02540000       1.64590000      -0.04630000
O        1.41620000       1.89130000      -0.14580000
C        2.21430000       0.72110000       0.17540000
C        1.19010000      -0.12580000       0.88460000
O        0.83010000      -1.56120000       0.86360000
C       -0.53380000      -0.99390000       1.03850000
C       -0.42140000      -0.33120000       2.41620000
C        0.76640000       0.26430000       2.31350000
C       -0.07180000       0.13640000       0.05130000
H       -0.41780000       2.15640000       0.83950000
H       -0.48950000       2.06090000      -0.94480000
H        2.59710000       0.24150000      -0.73390000
H        3.05380000       1.05880000       0.79030000
H       -1.33240000      -1.69900000       0.81480000
H       -1.13630000      -0.37450000       3.22410000
H        1.32870000       0.87160000       3.00740000
H        0.05050000      -0.31140000      -0.93880000
