21
Properties=species:S:1:pos:R:3 gdb_90610=T pbc="F F F"
C        0.03680000       1.57650000       0.03480000
C        0.03100000       0.07440000       0.01140000
C       -0.90950000      -0.75190000       0.84230000
C        0.57010000      -0.94720000       1.03440000
C        1.23080000      -1.76070000      -0.09600000
C        0.47200000      -2.92470000      -0.79540000
O       -0.37130000      -3.67650000       0.04950000
C       -0.17090000      -1.90200000      -1.80110000
C        0.65590000      -0.75990000      -1.14020000
H        1.02120000       1.98070000      -0.22990000
H       -0.69090000       1.98930000      -0.67580000
H       -0.22340000       1.95630000       1.02860000
H       -1.38640000      -0.19660000       1.64560000
H       -1.52580000      -1.54450000       0.43580000
H        1.03620000      -0.77040000       1.99720000
H        2.30600000      -1.89260000       0.02880000
H        1.18110000      -3.58460000      -1.31580000
H       -0.77600000      -4.37380000      -0.47630000
H        0.08540000      -2.09550000      -2.84620000
H       -1.25670000      -1.80480000      -1.72180000
H        1.32240000      -0.19190000      -1.79000000
