19
Properties=species:S:1:pos:R:3 gdb_71850=T pbc="F F F"
O       -0.02220000       1.42470000      -0.00080000
C       -0.01350000       0.02940000      -0.06180000
C        0.31230000      -0.71870000      -1.35660000
C       -0.58650000      -1.87080000      -0.78200000
C        0.31670000      -2.73560000       0.05960000
C        0.91640000      -2.09760000       1.06660000
C        0.41590000      -0.69690000       1.30340000
C       -1.12050000      -0.83460000       1.61230000
C       -1.33620000      -0.76080000       0.09980000
H        0.88670000       1.73020000       0.09680000
H       -0.17670000      -0.20320000      -2.18900000
H        1.34500000      -0.96930000      -1.61530000
H       -1.20480000      -2.42150000      -1.48980000
H        0.50150000      -3.77180000      -0.20220000
H        1.63250000      -2.55650000       1.73990000
H        1.02470000      -0.10080000       1.98550000
H       -1.43350000      -1.72070000       2.16970000
H       -1.51560000       0.06960000       2.08300000
H       -2.28040000      -0.42200000      -0.32870000
