11
Properties=species:S:1:pos:R:3 gdb_3402=T pbc="F F F"
O        0.01240000       1.37860000      -0.02710000
C       -0.04350000       0.00280000       0.01230000
C       -0.46730000      -0.76410000       1.20040000
O       -1.47560000       0.01810000       1.89880000
C       -2.36510000      -0.15910000       0.82230000
O       -3.50580000       0.15750000       0.78740000
C       -1.35110000      -0.84020000      -0.04180000
H       -0.44760000       1.71410000       0.75420000
H        0.74180000      -0.44180000      -0.59280000
H        0.04300000      -1.52820000       1.77070000
H       -1.52900000      -1.61630000      -0.77150000
