18
Properties=species:S:1:pos:R:3 gdb_51320=T pbc="F F F"
O        0.09260000      -0.07730000      -0.03220000
C        0.02930000       1.10050000       0.13870000
O        1.06990000       1.91860000      -0.21530000
C        0.91190000       3.29200000      -0.13470000
N       -0.23780000       3.80710000      -0.14800000
C       -0.37070000       5.25890000      -0.04790000
C        0.88290000       6.00160000       0.42960000
C        2.11700000       5.47940000      -0.31180000
C        2.25530000       3.97080000      -0.07070000
H       -0.80580000       1.65290000       0.58770000
H       -0.67420000       5.62380000      -1.03890000
H       -1.21690000       5.46550000       0.61680000
H        0.75400000       7.07790000       0.27560000
H        1.01230000       5.84650000       1.50860000
H        2.00500000       5.66910000      -1.38650000
H        3.02530000       5.99750000       0.00870000
H        2.69250000       3.76560000       0.91550000
H        2.92030000       3.49420000      -0.79780000
