17
Properties=species:S:1:pos:R:3 gdb_39365=T pbc="F F F"
C        0.04680000       1.39340000      -0.38740000
N        1.42160000       1.40450000       0.20080000
C        1.34470000       0.07190000       0.61390000
N        1.98240000      -0.67620000       1.40810000
C        1.35140000      -2.01070000       1.48320000
C       -0.20470000      -2.00120000       1.55980000
C       -0.85650000      -1.12940000       0.50180000
O       -0.32630000      -1.22920000      -0.83840000
C        0.02650000      -0.10790000      -0.05800000
H       -0.68600000       2.00070000       0.15450000
H        0.02750000       1.64430000      -1.45110000
H        1.77680000       2.15030000       0.78380000
H        1.65820000      -2.61160000       0.61840000
H        1.73550000      -2.51790000       2.37250000
H       -0.57080000      -3.03170000       1.48990000
H       -0.52240000      -1.61460000       2.53730000
H       -1.93240000      -0.97230000       0.54680000
