20
Properties=species:S:1:pos:R:3 gdb_62669=T pbc="F F F"
C        0.03020000       1.46950000       0.03160000
C       -0.05570000      -0.04890000      -0.02250000
O       -1.27330000      -0.47830000      -0.58480000
C        1.29460000      -0.70590000      -0.19100000
C        0.55710000      -0.72580000       1.16010000
C        0.69770000      -2.26310000       1.08820000
C        1.22850000      -3.01810000       2.27060000
C        0.13230000      -2.89420000      -0.12260000
N        1.45240000      -2.20460000      -0.21360000
H        0.95750000       1.81000000       0.49980000
H       -0.00960000       1.89090000      -0.98000000
H       -0.81570000       1.86860000       0.59920000
H       -1.27860000      -0.19930000      -1.50820000
H        2.16380000      -0.13820000      -0.50550000
H        0.77990000      -0.18520000       2.07310000
H        0.45630000      -3.12400000       3.04220000
H        1.55570000      -4.01790000       1.97210000
H        2.08390000      -2.49930000       2.71800000
H        0.26350000      -3.97110000      -0.19690000
H       -0.73690000      -2.49040000      -0.61660000
