17
Properties=species:S:1:pos:R:3 gdb_110754=T pbc="F F F"
C        0.15910000       0.86790000       0.35190000
O       -0.23750000      -0.05670000      -0.64820000
C       -1.43090000      -0.69480000      -0.36550000
C       -1.65970000      -2.07170000      -0.87080000
N       -0.43290000      -2.87260000      -0.82110000
C       -0.26410000      -2.65030000       0.56480000
O        0.59280000      -2.99200000       1.32920000
C       -1.56020000      -1.84510000       0.65470000
N       -2.58350000      -1.82890000       1.63390000
H        1.09020000       1.32480000       0.01130000
H       -0.59600000       1.65480000       0.49310000
H        0.33420000       0.36470000       1.31210000
H       -2.31070000      -0.04700000      -0.33880000
H       -2.51300000      -2.39720000      -1.45080000
H        0.33470000      -2.68770000      -1.45780000
H       -2.78840000      -2.76530000       1.96800000
H       -2.31290000      -1.27240000       2.43840000
