19
Properties=species:S:1:pos:R:3 gdb_38760=T pbc="F F F"
C       -0.00340000       1.59170000      -0.14770000
C        1.54040000       1.55270000      -0.02730000
O        2.00320000       1.73130000       1.30890000
C        1.90640000       0.47020000       1.98550000
C        2.31320000      -0.56140000       0.92320000
C        1.50950000       0.00670000      -0.24110000
C       -0.02920000       0.05300000       0.07760000
O       -0.33200000      -0.38880000       1.38840000
C        0.46080000       0.18460000       2.42670000
H       -0.54010000       2.22260000       0.56420000
H       -0.32460000       1.84260000      -1.16330000
H        2.12840000       2.19960000      -0.68140000
H        2.56210000       0.53060000       2.85760000
H        3.38890000      -0.53290000       0.72970000
H        2.01830000      -1.57960000       1.18860000
H        1.76470000      -0.36200000      -1.23430000
H       -0.68720000      -0.52270000      -0.57590000
H        0.45190000      -0.54700000       3.24190000
H        0.01270000       1.11820000       2.79660000
