20
Properties=species:S:1:pos:R:3 gdb_119181=T pbc="F F F"
O       -0.24820000       1.48850000       0.10500000
C       -0.01020000       0.09150000       0.01670000
C       -1.37170000      -0.58240000      -0.10660000
C       -1.37070000      -2.09950000      -0.03480000
C       -0.19970000      -2.91210000      -0.40490000
O       -0.53130000      -2.68740000       0.97280000
C       -2.74420000      -2.71250000      -0.11930000
C       -3.02110000      -4.04910000       0.45230000
N       -3.55300000      -2.83830000       1.10780000
H        0.59770000       1.92950000       0.22460000
H        0.61460000      -0.14370000      -0.85930000
H        0.50600000      -0.29080000       0.90870000
H       -2.01110000      -0.19940000       0.69810000
H       -1.84620000      -0.27340000      -1.04580000
H       -0.35340000      -3.93070000      -0.75680000
H        0.72190000      -2.44050000      -0.73880000
H       -3.32020000      -2.38360000      -0.98240000
H       -3.76870000      -4.68810000      -0.00860000
H       -2.19870000      -4.56570000       0.93720000
H       -2.95760000      -2.62680000       1.90740000
