18
Properties=species:S:1:pos:R:3 gdb_90381=T pbc="F F F"
C        0.00000000       1.55990000      -0.01540000
C        0.07930000       0.06220000      -0.02800000
C        0.62490000      -0.92060000      -1.05820000
C        1.24550000      -1.78450000       0.04240000
C        0.67210000      -0.78770000       1.10980000
O        1.65590000      -0.03360000       1.78340000
C       -0.87450000      -0.79730000      -0.84300000
C       -1.66600000      -1.85630000      -0.27430000
N       -2.28800000      -2.70930000       0.20020000
H        0.95030000       1.98440000       0.31820000
H       -0.22490000       1.95150000      -1.01260000
H       -0.78230000       1.90870000       0.66800000
H        1.03990000      -0.73070000      -2.04120000
H        0.92260000      -2.82810000       0.09090000
H        2.33570000      -1.72880000       0.04360000
H       -0.05900000      -1.20780000       1.81320000
H        2.04750000      -0.59110000       2.46300000
H       -1.39000000      -0.24350000      -1.62220000
