21
Properties=species:S:1:pos:R:3 gdb_92018=T pbc="F F F"
C        0.08980000       1.56260000       0.00280000
C        0.01960000       0.03010000       0.01550000
C        0.55250000      -0.54970000      -1.31460000
C        0.69000000      -2.06450000      -1.31440000
O        2.00800000      -2.59120000      -1.10020000
C        1.03550000      -2.76120000      -0.06250000
C        1.19890000      -1.98550000       1.21390000
C        2.18740000      -0.84320000       1.27790000
C        0.71150000      -0.54880000       1.24030000
H        1.12990000       1.90230000      -0.05300000
H       -0.44690000       1.97630000      -0.85790000
H       -0.35210000       1.98850000       0.90960000
H       -1.04000000      -0.25730000       0.09150000
H       -0.11970000      -0.24120000      -2.12210000
H        1.53170000      -0.11480000      -1.54700000
H        0.12540000      -2.60540000      -2.07360000
H        0.70750000      -3.79270000       0.06420000
H        1.06390000      -2.57370000       2.11530000
H        2.71800000      -0.68770000       2.21050000
H        2.78380000      -0.67580000       0.38900000
H        0.27240000      -0.22000000       2.17890000
