21
Properties=species:S:1:pos:R:3 gdb_6394=T pbc="F F F"
C        0.01560000       1.61290000       0.34480000
C        0.01780000       0.10250000       0.10080000
C        0.77870000      -0.70290000       1.16750000
C        0.63420000      -2.21450000       0.95240000
N        2.18700000      -0.32030000       1.20990000
C        2.81430000       0.12120000       2.34110000
C        4.30080000       0.41070000       2.18350000
O        2.24020000       0.27350000       3.40490000
H        1.03420000       2.01180000       0.36320000
H       -0.53740000       2.13710000      -0.44050000
H       -0.45050000       1.85620000       1.30520000
H       -1.01350000      -0.26940000       0.06820000
H        0.44770000      -0.11760000      -0.88740000
H        0.39360000      -0.44290000       2.15800000
H        1.16020000      -2.76890000       1.73430000
H       -0.41960000      -2.51000000       0.97080000
H        1.04720000      -2.51720000      -0.01770000
H        2.73620000      -0.45680000       0.37610000
H        4.65940000       0.34060000       1.15300000
H        4.50370000       1.41370000       2.56620000
H        4.86410000      -0.29400000       2.80190000
