19
Properties=species:S:1:pos:R:3 gdb_101649=T pbc="F F F"
O        0.24640000       0.74130000       0.58450000
C       -0.04590000      -0.09960000      -0.51940000
C       -1.46390000      -0.68030000      -0.46220000
O       -1.72430000      -1.45300000      -1.63740000
C       -1.73070000      -1.45340000       0.84090000
C       -2.94410000      -2.41210000       0.72680000
O       -4.03840000      -1.82000000       0.04530000
C       -2.54550000      -3.69210000       0.11580000
C       -2.19790000      -4.72490000      -0.39530000
H       -0.27490000       1.54520000       0.49120000
H        0.08800000       0.41490000      -1.48160000
H        0.68440000      -0.91710000      -0.47940000
H       -2.18060000       0.14830000      -0.52440000
H       -1.33430000      -2.32920000      -1.52550000
H       -0.84690000      -2.03340000       1.13180000
H       -1.91040000      -0.73010000       1.64030000
H       -3.31180000      -2.62590000       1.73690000
H       -3.74300000      -1.70680000      -0.86960000
H       -1.91900000      -5.65280000      -0.83120000
