17
Properties=species:S:1:pos:R:3 gdb_71214=T pbc="F F F"
O        0.00670000       1.38650000       0.01430000
C       -0.03610000       0.01260000       0.08060000
C        0.44490000      -0.81590000       1.31240000
C       -0.40150000      -1.92650000       0.65820000
C        0.02580000      -2.09830000      -0.86690000
C       -1.42800000      -1.65980000      -1.26730000
C       -1.37060000      -0.86840000       0.05550000
C        0.68810000      -0.74290000      -1.02500000
O        1.48100000      -0.28990000      -1.80890000
H        0.60710000       1.60750000      -0.71380000
H        1.52200000      -0.95380000       1.45280000
H       -0.01390000      -0.46410000       2.24050000
H       -0.74140000      -2.81580000       1.18360000
H        0.51180000      -2.98100000      -1.27590000
H       -1.55400000      -1.13050000      -2.21700000
H       -2.13550000      -2.49120000      -1.21080000
H       -2.23760000      -0.46830000       0.57850000
