16
Properties=species:S:1:pos:R:3 gdb_22764=T pbc="F F F"
C       -0.81640000       1.28770000       0.04290000
C       -0.04700000      -0.02150000      -0.03390000
N        1.24410000       0.04910000      -0.79430000
C        2.00610000      -0.61620000       0.29830000
C        3.22900000       0.08060000       0.70220000
N        4.19990000       0.62770000       1.00630000
C        0.76020000      -0.46170000       1.16960000
N        0.46260000      -0.60690000       2.38600000
O        1.55920000      -1.03950000       3.13470000
H       -0.16330000       2.09400000       0.38500000
H       -1.21020000       1.55450000      -0.94270000
H       -1.65690000       1.19260000       0.73710000
H       -0.70780000      -0.82930000      -0.38220000
H        1.25710000      -0.46020000      -1.67030000
H        2.24960000      -1.67460000       0.12780000
H        1.21050000      -1.05680000       4.03310000
