11
Properties=species:S:1:pos:R:3 gdb_123293=T pbc="F F F"
C        0.11480000      -1.18540000      -0.00510000
C        0.03270000       0.01450000       0.00250000
C       -0.08110000       1.41300000       0.01170000
C       -1.17440000       2.25180000       0.03210000
C       -0.59330000       3.55320000       0.03070000
N        0.71130000       3.50390000       0.01150000
O        1.04190000       2.15460000      -0.00050000
C       -2.54210000       1.90020000       0.05000000
N       -3.66690000       1.62710000       0.06480000
H        0.18420000      -2.24630000      -0.01170000
H       -1.09810000       4.50810000       0.04320000
