19
Properties=species:S:1:pos:R:3 gdb_109114=T pbc="F F F"
C       -0.05130000       1.55520000       0.07720000
C        0.02170000       0.03220000      -0.03220000
C        0.72540000      -0.44060000      -1.26850000
N        1.22780000       0.32340000      -2.16570000
C        1.80840000      -0.55400000      -3.17950000
C        1.55420000      -1.98640000      -2.71170000
O        1.84780000      -3.04480000      -3.21620000
N        0.87220000      -1.81590000      -1.50950000
C        0.41990000      -2.92370000      -0.69630000
H        0.94950000       1.99250000       0.08980000
H       -0.58120000       1.98140000      -0.77750000
H       -0.57260000       1.84410000       0.99370000
H        0.53250000      -0.39300000       0.84270000
H       -0.98660000      -0.40390000      -0.01770000
H        1.35170000      -0.38330000      -4.16080000
H        2.88290000      -0.37180000      -3.29370000
H        0.71950000      -3.83620000      -1.21620000
H        0.88140000      -2.91010000       0.29650000
H       -0.66870000      -2.92000000      -0.57920000
