20
Properties=species:S:1:pos:R:3 gdb_32977=T pbc="F F F"
C        0.03030000       1.41640000       0.09130000
N        0.03510000      -0.03130000       0.05070000
C       -0.01600000      -0.78080000      -1.10100000
C       -0.06000000      -2.10970000      -0.75470000
C       -0.03960000      -2.16880000       0.66380000
C        0.01540000      -0.87600000       1.14450000
C        0.10350000      -0.37820000       2.55250000
C        1.55010000      -0.15970000       3.03620000
O        1.61420000       0.36930000       4.34960000
H        0.89150000       1.80560000       0.64340000
H        0.07940000       1.79660000      -0.93040000
H       -0.88270000       1.80210000       0.55830000
H       -0.02330000      -0.29680000      -2.06510000
H       -0.10290000      -2.94170000      -1.44050000
H       -0.06500000      -3.05830000       1.27610000
H       -0.44700000       0.56060000       2.68630000
H       -0.37570000      -1.11390000       3.21020000
H        2.10880000      -1.10330000       2.94520000
H        2.05550000       0.57220000       2.39710000
H        1.25020000      -0.28910000       4.95000000
