21
Properties=species:S:1:pos:R:3 gdb_115011=T pbc="F F F"
C       -0.09500000       1.68820000      -0.23840000
C       -0.24530000       0.16330000      -0.24590000
C        0.80050000      -0.54460000      -1.10900000
C        2.27520000      -0.36910000      -0.64990000
C        2.91990000      -1.69200000      -0.99170000
C        2.02090000      -2.62010000      -1.31710000
C        0.64180000      -2.06870000      -1.25220000
C       -0.50680000      -2.86410000      -0.78260000
O       -0.34840000      -2.55850000      -2.16930000
H        0.87300000       1.99540000       0.17070000
H       -0.17070000       2.09600000      -1.25250000
H       -0.87510000       2.15800000       0.36840000
H       -0.18920000      -0.21890000       0.78210000
H       -1.24380000      -0.09380000      -0.62060000
H        0.72070000      -0.15260000      -2.13200000
H        2.77080000       0.48010000      -1.13290000
H        2.33320000      -0.18220000       0.43260000
H        3.99130000      -1.84980000      -0.93680000
H        2.21720000      -3.65370000      -1.57610000
H       -0.36140000      -3.91060000      -0.51330000
H       -1.34250000      -2.37550000      -0.28460000
