19
Properties=species:S:1:pos:R:3 gdb_82075=T pbc="F F F"
C        0.29200000       1.75060000      -0.84030000
C        0.09100000       0.32610000      -0.33990000
C        0.81540000      -0.82680000      -1.04320000
C        2.26870000      -0.76900000      -0.82320000
N        1.42910000      -1.35570000       0.24860000
C        0.78360000      -0.19380000       0.96160000
C        1.68540000       0.71540000       1.78530000
N        2.83780000       0.12390000       2.20380000
O        1.36790000       1.85530000       2.07030000
H        1.34900000       1.99690000      -0.97250000
H       -0.20980000       1.88600000      -1.80480000
H       -0.11900000       2.46730000      -0.12580000
H       -0.98000000       0.11610000      -0.27590000
H        0.36530000      -1.50170000      -1.76420000
H        2.88120000      -1.51600000      -1.31860000
H        2.76700000       0.18140000      -0.65240000
H        0.04240000      -0.59700000       1.65890000
H        3.02770000      -0.84120000       1.99000000
H        3.43820000       0.62480000       2.83770000
