18
Properties=species:S:1:pos:R:3 gdb_50505=T pbc="F F F"
O       -0.03150000      -0.01020000      -0.03460000
C        0.01800000       1.20220000       0.02380000
N        1.16650000       1.91950000       0.07780000
C        2.48110000       1.27330000      -0.00930000
C        3.46910000       2.45050000       0.00860000
C        2.63780000       3.63760000      -0.54280000
C        1.25210000       3.37440000       0.09100000
C        3.18520000       4.95220000      -0.25350000
C        3.63670000       6.03640000       0.00180000
H       -0.88330000       1.84780000       0.03740000
H        2.63190000       0.57910000       0.82240000
H        2.54170000       0.68700000      -0.93330000
H        3.78350000       2.67910000       1.03130000
H        4.36650000       2.25940000      -0.58230000
H        2.54020000       3.51700000      -1.62940000
H        0.43370000       3.82700000      -0.47450000
H        1.22960000       3.78000000       1.11140000
H        4.03690000       6.99560000       0.21990000
