23
Properties=species:S:1:pos:R:3 gdb_64259=T pbc="F F F"
C       -0.15980000       1.56540000       0.11610000
C       -0.00970000       0.03830000       0.01010000
C       -1.39930000      -0.61520000      -0.03660000
C        0.80850000      -0.35670000      -1.26030000
C        2.33460000      -0.45340000      -1.00550000
C        2.58640000      -0.86620000       0.44370000
C        1.49340000      -1.81360000       0.98220000
C        0.76960000      -0.47440000       1.24070000
O        2.06190000       0.19550000       1.29350000
H        0.81690000       2.05230000       0.14970000
H       -0.72000000       1.95680000      -0.73980000
H       -0.70340000       1.84500000       1.02620000
H       -1.93680000      -0.31840000      -0.94390000
H       -1.33350000      -1.70890000      -0.03380000
H       -2.00900000      -0.31270000       0.82240000
H        0.45350000      -1.33270000      -1.60870000
H        0.59760000       0.34430000      -2.07450000
H        2.78890000      -1.16790000      -1.70230000
H        2.82980000       0.51070000      -1.16410000
H        3.63590000      -1.08480000       0.65990000
H        1.04390000      -2.54540000       0.30820000
H        1.79670000      -2.29480000       1.91310000
H        0.20500000      -0.34740000       2.17050000
