17
Properties=species:S:1:pos:R:3 gdb_98907=T pbc="F F F"
O       -0.12510000       1.32100000       0.55010000
C       -0.36320000      -0.04610000       0.71460000
C       -1.39000000      -0.54780000      -0.28320000
O       -1.85770000       0.19660000      -1.11400000
C       -1.84970000      -2.00880000      -0.18330000
O       -0.73740000      -2.84670000      -0.00100000
C       -1.17580000      -3.90250000       0.85190000
C       -2.14360000      -3.17890000       1.78640000
O       -2.68930000      -2.15150000       0.95570000
H       -0.68240000       1.59200000      -0.19600000
H        0.55430000      -0.63890000       0.57910000
H       -0.73200000      -0.27060000       1.72820000
H       -2.42230000      -2.26540000      -1.08790000
H       -1.68360000      -4.68520000       0.27130000
H       -0.30170000      -4.32640000       1.34890000
H       -2.96050000      -3.81000000       2.14640000
H       -1.62260000      -2.73830000       2.64600000
