12
Properties=species:S:1:pos:R:3 gdb_132820=T pbc="F F F"
O        0.02530000       1.34630000       0.05930000
C        0.05070000       0.00830000       0.04590000
N        0.06870000      -0.62030000      -1.13100000
C        0.09360000      -1.94900000      -1.09030000
N        0.10230000      -2.71290000      -0.00220000
C        0.08410000      -2.07520000       1.16970000
O        0.09180000      -2.79910000       2.29530000
C        0.05740000      -0.68640000       1.25150000
F        0.03940000      -0.05560000       2.42150000
H        0.02500000       1.62470000      -0.86780000
H        0.10840000      -2.46450000      -2.04650000
H        0.11080000      -3.72650000       2.01860000
