15
Properties=species:S:1:pos:R:3 gdb_77198=T pbc="F F F"
C       -0.27200000       1.41450000      -0.11970000
C       -0.06150000      -0.07400000       0.08440000
C        1.20070000      -0.72190000      -0.55530000
O        1.62780000      -1.25580000       0.71760000
C        0.55400000      -0.59560000       1.42190000
C        1.04350000       0.42260000       2.35440000
N        1.41290000       1.23790000       3.08520000
C        0.97330000      -1.76060000      -1.55840000
N        0.77050000      -2.56610000      -2.36140000
H        0.62360000       1.98770000       0.13620000
H       -0.52780000       1.61910000      -1.16390000
H       -1.09330000       1.77890000       0.50420000
H       -0.96440000      -0.63580000      -0.15900000
H        1.92450000       0.00430000      -0.94470000
H       -0.06310000      -1.31360000       1.97160000
