19
Properties=species:S:1:pos:R:3 gdb_72329=T pbc="F F F"
C       -0.12140000       1.59350000      -0.11310000
C       -0.03060000       0.07640000      -0.01840000
C       -1.41570000      -0.55570000       0.27970000
C       -1.32230000      -0.81240000       1.78810000
C       -0.06360000      -0.83060000       2.25380000
C        0.81230000      -0.62690000       1.07130000
C        2.13430000      -0.15530000       0.43060000
C        1.16460000      -0.68400000      -0.69010000
O        0.90090000      -1.84390000       0.15470000
H        0.84740000       2.08450000      -0.22360000
H       -0.72880000       1.87260000      -0.98170000
H       -0.61320000       2.00750000       0.77470000
H       -2.25300000       0.09850000       0.01700000
H       -1.55830000      -1.50880000      -0.23770000
H       -2.20240000      -1.01670000       2.38970000
H        0.24890000      -1.04350000       3.26740000
H        2.39410000       0.90280000       0.48350000
H        2.99220000      -0.80620000       0.59910000
H        1.39210000      -0.86590000      -1.74270000
