21
Properties=species:S:1:pos:R:3 gdb_41470=T pbc="F F F"
C        0.07690000       1.52900000       0.38380000
C        1.49770000       1.64950000      -0.25090000
C        1.44240000       0.15980000      -0.63530000
C        1.99740000      -0.42940000      -1.91890000
C        2.08240000      -1.92620000      -1.57620000
O        2.41740000      -1.98770000      -0.19110000
C        1.82060000      -0.88320000       0.46490000
C        0.31780000      -1.04220000       0.85250000
C       -0.05660000       0.07250000      -0.15370000
H        0.05310000       1.60240000       1.47510000
H       -0.65620000       2.23220000      -0.01730000
H        1.50500000       2.30540000      -1.12660000
H        2.31850000       1.95290000       0.40710000
H        1.37510000      -0.23290000      -2.79720000
H        2.99840000      -0.02560000      -2.11400000
H        1.11640000      -2.42050000      -1.76760000
H        2.85420000      -2.46840000      -2.12910000
H        2.49400000      -0.56880000       1.26810000
H       -0.05930000      -2.03110000       0.57750000
H        0.06550000      -0.85340000       1.90050000
H       -0.88940000      -0.11470000      -0.83450000
