19
Properties=species:S:1:pos:R:3 gdb_80463=T pbc="F F F"
C        0.61020000       1.52580000       0.08710000
C        0.10950000       0.07990000       0.03700000
C        0.55750000      -0.75850000      -1.18590000
C        1.16630000      -2.06100000      -0.65110000
C        2.44700000      -1.92050000       0.11190000
O        3.13290000      -0.70140000       0.15350000
C        1.15020000      -2.02120000       0.87580000
C        0.51950000      -0.71990000       1.28600000
O        0.30190000      -0.37900000       2.42160000
H        1.70220000       1.55140000       0.03930000
H        0.20950000       2.11020000      -0.74700000
H        0.29650000       1.99620000       1.02280000
H       -0.98800000       0.09490000       0.07470000
H       -0.28840000      -0.98820000      -1.83830000
H        1.28610000      -0.20860000      -1.79180000
H        0.97930000      -2.98450000      -1.18760000
H        3.08710000      -2.79980000       0.17810000
H        3.62370000      -0.60630000      -0.67020000
H        0.99460000      -2.87960000       1.51760000
