19
Properties=species:S:1:pos:R:3 gdb_63923=T pbc="F F F"
C       -0.12820000       1.57550000       0.00020000
C        0.01250000       0.05200000      -0.02730000
O       -1.27530000      -0.56740000       0.01870000
C        0.85300000      -0.46120000      -1.24450000
C        2.16530000      -0.91210000      -0.61790000
O        2.78150000       0.25910000       0.02410000
C        2.26280000      -0.19220000       1.27650000
C        1.81300000      -1.51990000       0.76120000
C        0.77960000      -0.49440000       1.17910000
H        0.85680000       2.04720000      -0.03180000
H       -0.70130000       1.92820000      -0.86690000
H       -0.65160000       1.89480000       0.90660000
H       -1.81730000      -0.16440000      -0.66810000
H        0.33400000      -1.31450000      -1.69380000
H        1.01130000       0.30390000      -2.01040000
H        2.87460000      -1.42560000      -1.26830000
H        2.77470000       0.11920000       2.17930000
H        1.92980000      -2.53410000       1.11510000
H        0.23680000      -0.62690000       2.10790000
