17
Properties=species:S:1:pos:R:3 gdb_14925=T pbc="F F F"
N        0.00430000      -1.16410000       0.01370000
C        0.01770000      -0.00900000      -0.01620000
C        0.00460000       1.45670000       0.01080000
C       -0.76480000       1.97980000       1.25820000
N       -0.72100000       3.43190000       1.36700000
C        0.64470000       3.95760000       1.27390000
C        1.40340000       3.43900000       0.04310000
N        1.37590000       1.97580000      -0.07980000
H       -0.53070000       1.80150000      -0.88610000
H       -1.80720000       1.64700000       1.23060000
H       -0.30390000       1.54570000       2.15510000
H       -1.29840000       3.84870000       0.64220000
H        0.60010000       5.05210000       1.27280000
H        1.18190000       3.65690000       2.18460000
H        0.95300000       3.85840000      -0.86780000
H        2.45050000       3.75950000       0.06030000
H        1.93640000       1.55840000       0.65900000
