19
Properties=species:S:1:pos:R:3 gdb_10173=T pbc="F F F"
C       -0.79710000      -1.89690000      -3.54770000
O       -1.72110000      -2.81240000      -2.98850000
C       -2.40360000      -2.30290000      -1.85580000
C       -1.51950000      -2.14880000      -0.63130000
O       -0.89630000      -3.24450000      -0.11810000
C       -1.26620000      -4.55530000      -0.54810000
N       -1.35300000      -0.99800000      -0.12720000
C       -0.52010000      -0.87500000       1.06060000
H       -0.35600000      -2.38650000      -4.41880000
H       -1.29780000      -0.97170000      -3.86890000
H        0.00050000      -1.62860000      -2.84230000
H       -2.83490000      -1.31520000      -2.05560000
H       -3.21910000      -3.00750000      -1.65920000
H       -0.55400000      -5.23380000      -0.07520000
H       -2.27610000      -4.81340000      -0.20740000
H       -1.20780000      -4.64960000      -1.63420000
H        0.54440000      -0.92850000       0.79690000
H       -0.70170000       0.09860000       1.52300000
H       -0.70820000      -1.66490000       1.79810000
