19
Properties=species:S:1:pos:R:3 gdb_47667=T pbc="F F F"
O        0.00770000      -0.25320000       0.26640000
C        0.02310000       0.92800000      -0.03510000
N       -1.02640000       1.52410000      -0.74120000
C       -1.69280000       2.76970000      -0.32290000
C       -1.19740000       4.07370000      -0.99740000
C       -0.05060000       4.75710000      -0.28980000
C        1.15330000       4.22270000      -0.09470000
C        1.53510000       2.85070000      -0.59290000
N        1.08470000       1.75220000       0.27310000
H       -1.69170000       0.79240000      -0.94780000
H       -2.74620000       2.63890000      -0.58650000
H       -1.64790000       2.88730000       0.76660000
H       -0.94130000       3.83990000      -2.03810000
H       -2.04460000       4.76580000      -1.03800000
H       -0.25520000       5.74420000       0.11860000
H        1.90300000       4.77630000       0.46480000
H        1.11770000       2.68930000      -1.59290000
H        2.62260000       2.77450000      -0.68370000
H        1.80830000       1.23410000       0.74790000
