19
Properties=species:S:1:pos:R:3 gdb_79450=T pbc="F F F"
C       -0.08740000       1.54800000       0.04680000
C       -0.02350000       0.02370000       0.04240000
C        0.75290000      -0.56490000      -1.15580000
C        2.08380000      -0.44180000      -0.37960000
O        2.54310000      -1.74010000      -0.81040000
C        1.11370000      -2.06380000      -0.84780000
C        0.82990000      -2.12880000       0.67550000
O        1.67310000      -3.02510000       1.34500000
C        1.11820000      -0.61910000       0.88220000
H        0.89050000       2.00120000      -0.14740000
H       -0.77860000       1.91270000      -0.72100000
H       -0.43830000       1.92010000       1.01490000
H       -1.02080000      -0.39000000       0.23130000
H        0.62030000      -0.26200000      -2.19380000
H        2.82700000       0.35020000      -0.43220000
H        0.87500000      -2.91120000      -1.48840000
H       -0.20010000      -2.39270000       0.92770000
H        2.53670000      -2.92150000       0.91920000
H        1.37190000      -0.28540000       1.88680000
