13
Properties=species:S:1:pos:R:3 gdb_133205=T pbc="F F F"
C       -0.25680000       1.46940000       0.02960000
C        0.02690000       0.00080000      -0.02190000
N        0.13360000      -0.54100000      -1.18520000
O        0.40040000      -1.92160000      -1.21390000
C        0.54240000      -2.66710000      -0.07240000
N        0.78250000      -3.90820000      -0.07330000
C        0.38870000      -1.88720000       1.16370000
F        0.51850000      -2.56350000       2.27510000
N        0.14880000      -0.64360000       1.21220000
H        0.54100000       1.98110000       0.57710000
H       -0.33480000       1.87970000      -0.97700000
H       -1.18920000       1.64690000       0.57490000
H        0.85370000      -4.26600000      -1.02780000
