16
Properties=species:S:1:pos:R:3 gdb_106259=T pbc="F F F"
O        0.67630000       0.17480000      -0.65510000
C       -0.21630000       0.28470000       0.43730000
C       -1.51360000      -0.42290000       0.16130000
O       -2.53280000      -0.36230000       1.20330000
C       -2.77350000      -1.74360000       1.04620000
N       -3.47710000      -2.51180000       1.73790000
C       -1.87760000      -1.88360000      -0.12970000
C       -2.19550000      -0.73580000      -1.11610000
O       -3.46260000      -0.29160000      -1.44420000
H        0.37860000       0.77560000      -1.34560000
H        0.27910000      -0.17460000       1.29900000
H       -0.42750000       1.33190000       0.70170000
H       -3.92930000      -2.01660000       2.50780000
H       -1.27840000      -2.74250000      -0.39350000
H       -1.55060000      -0.77630000      -1.98880000
H       -3.88410000       0.00670000      -0.62760000
