19
Properties=species:S:1:pos:R:3 gdb_102857=T pbc="F F F"
O        0.14730000       1.44340000       0.07510000
C        0.08940000       0.02660000       0.06680000
C       -1.35470000      -0.50050000       0.02390000
C       -2.06890000      -0.08960000      -1.28070000
C       -2.27920000       1.40360000      -1.40420000
O       -1.81290000       2.09000000      -2.28070000
C       -1.39390000      -2.03990000       0.18530000
C       -0.86430000      -2.50980000       1.46010000
C       -0.43460000      -2.88230000       2.51910000
H        0.11510000       1.76390000      -0.83170000
H        0.66320000      -0.39730000      -0.77200000
H        0.56480000      -0.31370000       0.99130000
H       -1.88740000      -0.05420000       0.87310000
H       -1.51410000      -0.43580000      -2.16000000
H       -3.06560000      -0.55340000      -1.30090000
H       -2.92970000       1.84480000      -0.61620000
H       -2.43010000      -2.38420000       0.07800000
H       -0.83500000      -2.50500000      -0.63860000
H       -0.05420000      -3.21940000       3.45150000
