19
Properties=species:S:1:pos:R:3 gdb_112469=T pbc="F F F"
O       -0.01210000       1.44620000       0.00260000
C        0.02450000       0.02910000      -0.05520000
C       -1.41420000      -0.48440000       0.05520000
C       -1.46440000      -2.00940000      -0.16950000
C       -2.83260000      -2.58150000       0.15980000
O       -3.45410000      -3.27570000      -0.60910000
C       -3.36330000      -2.22780000       1.54480000
C       -2.88160000      -0.89090000       2.04600000
C       -2.03430000      -0.10970000       1.37850000
H        0.89170000       1.77380000       0.01180000
H        0.46470000      -0.32020000      -1.00260000
H        0.62610000      -0.39100000       0.76740000
H       -1.97560000       0.01230000      -0.75030000
H       -1.20600000      -2.28390000      -1.19490000
H       -0.73850000      -2.48380000       0.50770000
H       -4.45750000      -2.28040000       1.51250000
H       -3.05190000      -3.02870000       2.23410000
H       -3.28710000      -0.55900000       2.99880000
H       -1.75170000       0.86050000       1.77510000
