23
Properties=species:S:1:pos:R:3 gdb_119407=T pbc="F F F"
O       -0.14020000       1.48240000       0.07140000
C        0.01220000       0.06970000       0.08660000
C       -1.37120000      -0.54540000      -0.10160000
C       -1.39460000      -2.05930000      -0.04050000
C       -1.04020000      -2.86230000       1.25500000
C       -1.85390000      -3.98430000       0.55210000
C       -2.74510000      -2.84240000      -0.00980000
C       -0.96270000      -4.31610000      -0.66010000
C       -0.61350000      -2.86020000      -1.11210000
H        0.72860000       1.87900000       0.18210000
H        0.68920000      -0.26250000      -0.71580000
H        0.44480000      -0.27250000       1.04090000
H       -2.02990000      -0.13180000       0.67190000
H       -1.77260000      -0.20570000      -1.06540000
H        0.01500000      -3.05250000       1.47810000
H       -1.54450000      -2.46450000       2.13970000
H       -2.27590000      -4.82200000       1.10800000
H       -3.43830000      -2.43970000       0.73340000
H       -3.26620000      -3.00950000      -0.95850000
H       -0.07670000      -4.89400000      -0.38030000
H       -1.49990000      -4.87890000      -1.42920000
H       -0.96410000      -2.63370000      -2.12420000
H        0.46190000      -2.66170000      -1.08140000
