19
Properties=species:S:1:pos:R:3 gdb_119529=T pbc="F F F"
C        0.01260000       1.35340000       0.23360000
O        0.01030000      -0.05120000       0.14620000
C       -1.27910000      -0.58490000      -0.07060000
C       -1.16620000      -2.07820000      -0.16330000
C       -0.22480000      -2.72320000      -1.18160000
C       -0.88470000      -4.05690000      -1.46610000
C       -2.03710000      -4.20350000      -0.80690000
C       -2.28610000      -3.01280000       0.06020000
O       -1.26250000      -2.81050000       1.06380000
H        1.04640000       1.66950000       0.39140000
H       -0.36640000       1.82130000      -0.68950000
H       -0.60140000       1.71130000       1.07500000
H       -1.96100000      -0.32030000       0.75280000
H       -1.70590000      -0.18180000      -1.00650000
H       -0.13290000      -2.10830000      -2.08590000
H        0.78480000      -2.83320000      -0.77160000
H       -0.43190000      -4.80140000      -2.11140000
H       -2.69330000      -5.06390000      -0.84340000
H       -3.28450000      -2.70310000       0.35690000
