19
Properties=species:S:1:pos:R:3 gdb_74390=T pbc="F F F"
C       -0.05330000       1.51890000       0.02070000
C       -0.00630000       0.03010000      -0.03110000
C       -0.03380000      -0.81490000      -1.06870000
C        0.04530000      -2.20770000      -0.46500000
C        0.04100000      -3.45050000      -1.31880000
C       -0.77830000      -2.15800000       0.88160000
O        0.18180000      -3.03720000       1.56050000
C        1.00300000      -2.09850000       0.78590000
C        0.08940000      -0.89110000       1.17730000
H        0.83950000       1.93080000       0.50860000
H       -0.12160000       1.95030000      -0.98190000
H       -0.91410000       1.87210000       0.60290000
H       -0.09810000      -0.58570000      -2.12470000
H        0.88980000      -3.45850000      -2.01130000
H        0.10470000      -4.33750000      -0.68260000
H       -0.87450000      -3.51740000      -1.91680000
H       -1.84400000      -2.33210000       1.05620000
H        2.09050000      -2.20050000       0.84480000
H        0.13090000      -0.49990000       2.19310000
