20
Properties=species:S:1:pos:R:3 gdb_122893=T pbc="F F F"
C       -0.62810000       1.74090000       0.25840000
C        0.13260000       0.43190000       0.05080000
O        1.03840000       0.28060000       1.11650000
C        1.95810000      -0.79540000       0.96730000
C        2.89320000      -0.78120000       2.16630000
C        3.91920000      -1.90680000       2.11770000
O        4.73920000      -1.78530000       3.26830000
C       -0.80260000      -0.71800000      -0.03050000
N       -1.52150000      -1.62080000      -0.09050000
H        0.08680000       2.56620000       0.28120000
H       -1.34190000       1.90360000      -0.55250000
H       -1.16800000       1.71380000       1.20740000
H        0.67450000       0.46640000      -0.90920000
H        1.41490000      -1.75040000       0.90480000
H        2.52130000      -0.67370000       0.02700000
H        3.41650000       0.17960000       2.21130000
H        2.30480000      -0.87170000       3.08510000
H        3.40500000      -2.88140000       2.09390000
H        4.51570000      -1.83200000       1.19310000
H        5.37750000      -2.50430000       3.26050000
