17
Properties=species:S:1:pos:R:3 gdb_34006=T pbc="F F F"
C       -0.01930000      -1.18220000      -0.09850000
C       -0.01750000       0.02000000      -0.04850000
C       -0.03020000       1.45600000       0.01050000
C        0.48820000       2.21710000      -1.22150000
C        1.30220000       2.19180000       0.03460000
O        1.38140000       3.38130000       0.75800000
C        0.64740000       3.40630000       1.97790000
C       -0.77730000       2.94570000       1.80540000
C       -1.09620000       2.06180000       0.86390000
H       -0.01780000      -2.24310000      -0.13930000
H        0.81100000       1.62310000      -2.06840000
H       -0.00760000       3.15260000      -1.45230000
H        2.20730000       1.58890000       0.06310000
H        1.15420000       2.80120000       2.74880000
H        0.68070000       4.44730000       2.31320000
H       -1.52900000       3.36570000       2.46670000
H       -2.11620000       1.72480000       0.70890000
