22
Properties=species:S:1:pos:R:3 gdb_105255=T pbc="F F F"
C        0.93820000       0.07290000      -1.21910000
C        0.19840000      -0.45440000       0.01880000
C       -1.31690000      -0.55110000      -0.12890000
C       -1.87620000      -1.43670000      -1.23260000
C       -2.00320000      -1.85100000       0.21140000
O       -1.21650000      -2.89450000       0.71100000
N       -2.17050000       0.58680000       0.16650000
C       -2.04370000       1.26870000       1.44880000
C       -1.65380000       1.94870000       0.18130000
H        2.01360000       0.14190000      -1.02540000
H        0.79750000      -0.59500000      -2.07470000
H        0.58930000       1.06420000      -1.52330000
H        0.57330000      -1.45140000       0.26580000
H        0.43810000       0.17210000       0.88730000
H       -2.76340000      -1.09140000      -1.74980000
H       -1.16120000      -1.98610000      -1.83670000
H       -2.98460000      -1.75540000       0.67300000
H       -1.50070000      -3.70920000       0.28450000
H       -2.98000000       1.51060000       1.94460000
H       -1.23920000       0.97500000       2.12050000
H       -0.59180000       2.11610000       0.02670000
H       -2.29920000       2.69900000      -0.26840000
