17
Properties=species:S:1:pos:R:3 gdb_96647=T pbc="F F F"
C       -0.02720000       1.45890000      -0.02870000
N       -0.04480000       0.00820000      -0.04750000
C        0.53750000      -0.60280000       0.90530000
N        1.23140000      -0.05980000       1.96660000
C        0.57230000      -2.11500000       0.87870000
C        1.88080000      -2.79820000       1.03600000
O        0.97010000      -2.72940000       2.12850000
C       -0.48360000      -2.78270000       0.16230000
C       -1.35120000      -3.37980000      -0.41370000
H        0.99440000       1.86550000      -0.08750000
H       -0.58700000       1.84060000      -0.88580000
H       -0.49450000       1.87620000       0.87950000
H        1.06660000       0.91230000       2.17210000
H        1.32600000      -0.66470000       2.76980000
H        2.00760000      -3.78460000       0.59570000
H        2.77800000      -2.19030000       1.13270000
H       -2.12690000      -3.89060000      -0.92870000
