16
Properties=species:S:1:pos:R:3 gdb_31935=T pbc="F F F"
C        0.11590000       1.40280000       0.10490000
N       -0.13460000      -0.00970000      -0.09740000
C        0.51850000      -0.72340000      -1.06020000
N        0.59130000      -2.05280000      -1.08070000
C        1.27420000      -2.35120000      -2.21820000
C        1.63770000      -1.21400000      -2.91300000
N        1.13440000      -0.16270000      -2.12920000
C        2.36210000      -1.01160000      -4.14130000
O        2.81340000      -1.89550000      -4.84360000
H        1.17450000       1.63410000       0.29650000
H       -0.21320000       1.98090000      -0.76710000
H       -0.47200000       1.74690000       0.95710000
H       -0.34460000      -0.56560000       0.71680000
H        1.48860000      -3.37020000      -2.50210000
H        1.20290000       0.81730000      -2.34480000
H        2.48940000       0.06280000      -4.42250000
