21
Properties=species:S:1:pos:R:3 gdb_114960=T pbc="F F F"
C        0.10970000       1.29270000       0.15850000
O       -0.19140000      -0.04870000      -0.14540000
C        0.57970000      -0.57930000      -1.20340000
C        2.07590000      -0.84130000      -0.86560000
C        2.35790000      -2.14350000      -1.57250000
C        1.24170000      -2.74940000      -1.97940000
C        1.13310000      -4.06580000      -2.67550000
O        2.42180000      -4.61980000      -2.86830000
C        0.00990000      -1.95400000      -1.61210000
H        1.14030000       1.41790000       0.52310000
H       -0.02540000       1.94810000      -0.71710000
H       -0.57920000       1.61040000       0.94530000
H        0.52980000       0.10550000      -2.06590000
H        2.73450000      -0.02620000      -1.18630000
H        2.19850000      -0.94010000       0.22280000
H        3.35330000      -2.54940000      -1.70040000
H        0.49090000      -4.73810000      -2.07760000
H        0.60850000      -3.92330000      -3.63790000
H        2.32050000      -5.46050000      -3.32270000
H       -0.51600000      -2.39760000      -0.75530000
H       -0.72120000      -1.87750000      -2.42540000
