19
Properties=species:S:1:pos:R:3 gdb_107139=T pbc="F F F"
C        0.05550000       1.31920000       0.28990000
O       -0.01680000      -0.01550000      -0.18670000
C       -1.29070000      -0.53370000      -0.14470000
C       -1.89550000      -1.10880000       1.10940000
C       -1.67830000      -1.98580000      -0.11230000
C       -2.69300000      -1.71850000      -1.27220000
O       -2.77080000      -2.56880000      -2.35910000
C       -3.73530000      -0.67510000      -0.97100000
C       -2.31070000      -0.26310000      -1.29940000
H        1.09820000       1.63230000       0.20400000
H       -0.57160000       1.99710000      -0.30600000
H       -0.25920000       1.38630000       1.34060000
H       -1.15590000      -1.28230000       1.88650000
H       -2.87950000      -0.85680000       1.49020000
H       -1.03830000      -2.85820000      -0.10070000
H       -3.40620000      -3.26400000      -2.15150000
H       -4.41920000      -0.51940000      -1.80090000
H       -4.18670000      -0.52360000       0.00380000
H       -2.06530000       0.35490000      -2.15300000
