16
Properties=species:S:1:pos:R:3 gdb_109488=T pbc="F F F"
C       -0.14410000       1.56030000       0.03110000
C        0.07350000       0.04850000      -0.02150000
N        0.75520000      -0.46080000       1.16470000
C        2.09700000      -0.77370000       1.23420000
O        2.91410000      -0.68800000       0.35290000
C        2.29750000      -1.25320000       2.66660000
O        1.00820000      -1.15790000       3.27790000
C        0.10290000      -0.68980000       2.37690000
O       -1.05640000      -0.51460000       2.61030000
H        0.81030000       2.09050000       0.09660000
H       -0.65800000       1.89180000      -0.87570000
H       -0.75990000       1.83000000       0.89270000
H       -0.88240000      -0.47580000      -0.09880000
H        0.69980000      -0.23100000      -0.87200000
H        2.64750000      -2.28910000       2.69190000
H        3.01200000      -0.62000000       3.20030000
