17
Properties=species:S:1:pos:R:3 gdb_26958=T pbc="F F F"
N        0.06120000       1.36280000       0.03410000
C       -0.00310000      -0.02100000       0.01830000
C       -1.05620000      -0.88080000       0.14970000
C       -0.47860000      -2.20450000       0.16460000
C        0.85760000      -2.03630000       0.02750000
O        1.16510000      -0.69890000      -0.05430000
N       -2.39490000      -0.42680000       0.23540000
C       -3.46180000      -1.29400000      -0.27080000
C       -3.29600000      -1.08230000       1.19120000
H        0.66580000       1.74310000      -0.68500000
H       -0.87390000       1.74560000      -0.04330000
H       -0.99240000      -3.14960000       0.25200000
H        1.69700000      -2.70710000      -0.03350000
H       -4.25560000      -0.78740000      -0.81290000
H       -3.17810000      -2.26170000      -0.67710000
H       -2.89330000      -1.90440000       1.77780000
H       -3.96670000      -0.41920000       1.73060000
