18
Properties=species:S:1:pos:R:3 gdb_79362=T pbc="F F F"
O        0.02580000       1.41550000       0.01670000
C       -0.01790000       0.00940000      -0.01500000
C       -1.40660000      -0.60680000      -0.17290000
C       -1.89300000      -0.73310000      -1.57200000
C       -1.12610000      -0.09300000      -2.71290000
O        0.24380000       0.15880000      -2.38560000
C        0.68430000      -0.59740000      -1.24880000
C        0.13380000      -2.02360000      -1.27830000
N       -1.29710000      -1.90200000      -0.89600000
H        0.02920000       1.69370000      -0.90970000
H        0.44050000      -0.34750000       0.91450000
H       -2.10610000      -0.56800000       0.65570000
H       -2.96210000      -0.82530000      -1.75010000
H       -1.17480000      -0.74400000      -3.59910000
H       -1.58280000       0.86460000      -2.98930000
H        1.77180000      -0.51500000      -1.22970000
H        0.23520000      -2.49830000      -2.25870000
H        0.63810000      -2.65550000      -0.54010000
