20
Properties=species:S:1:pos:R:3 gdb_100889=T pbc="F F F"
C       -0.01570000       1.63640000       0.00840000
C        0.02480000       0.10660000       0.02920000
C        0.69860000      -0.48120000      -1.21190000
O        2.04570000      -0.06850000      -1.35500000
C        0.61970000      -2.02760000      -1.21670000
O       -0.73580000      -2.40080000      -1.22880000
C       -0.96720000      -3.78780000      -1.04280000
C        1.34320000      -2.58980000      -2.38010000
N        1.86880000      -3.07270000      -3.28850000
H        0.98880000       2.05400000      -0.10120000
H       -0.61910000       2.00030000      -0.82990000
H       -0.45320000       2.02890000       0.93070000
H        0.57000000      -0.24470000       0.91930000
H       -0.98500000      -0.30740000       0.10310000
H        0.18760000      -0.12680000      -2.11400000
H        2.50340000      -0.22990000      -0.52170000
H        1.11970000      -2.40790000      -0.30740000
H       -0.52440000      -4.38260000      -1.85180000
H       -0.55970000      -4.13430000      -0.08170000
H       -2.04970000      -3.92650000      -1.04450000
