16
Properties=species:S:1:pos:R:3 gdb_13433=T pbc="F F F"
O       -0.35570000       1.15140000      -0.37320000
C       -0.16840000      -0.20960000      -0.10270000
C       -0.34920000      -0.56260000       1.34930000
O       -0.70750000       0.47420000       2.20410000
C       -1.36070000      -1.04980000       0.31820000
C       -2.75900000      -0.44430000       0.30910000
C       -3.13660000       0.10850000      -0.99160000
C       -3.39710000       0.57340000      -2.07120000
H       -1.07730000       1.23810000      -1.01150000
H        0.62230000      -0.68160000      -0.68220000
H        0.30840000      -1.29080000       1.81450000
H       -0.60500000       1.28680000       1.68580000
H       -1.30720000      -2.09760000       0.03940000
H       -3.48800000      -1.20610000       0.60780000
H       -2.80960000       0.34060000       1.07230000
H       -3.66270000       0.96870000      -3.02070000
