17
Properties=species:S:1:pos:R:3 gdb_2128=T pbc="F F F"
C        0.08670000       1.51170000       0.06060000
C       -0.00330000       0.02220000      -0.02210000
C       -1.07430000      -0.77490000       0.00340000
C       -2.52380000      -0.43130000       0.12260000
C       -0.62470000      -2.20930000      -0.11270000
O        0.79330000      -2.17230000      -0.20770000
C        1.23790000      -0.82300000      -0.15700000
H        0.69280000       1.82430000       0.92070000
H        0.57300000       1.92880000      -0.83060000
H       -0.89560000       1.98060000       0.15570000
H       -3.08960000      -0.79670000      -0.74400000
H       -2.97070000      -0.90290000       1.00720000
H       -2.68840000       0.64610000       0.19910000
H       -0.92810000      -2.81080000       0.76110000
H       -1.04880000      -2.70620000      -1.00180000
H        1.80800000      -0.57980000      -1.06970000
H        1.92750000      -0.68530000       0.69320000
