14
Properties=species:S:1:pos:R:3 gdb_10461=T pbc="F F F"
O       -0.44820000       0.33600000       0.46480000
C        0.26470000       0.87500000      -0.33970000
C        1.19560000       2.03160000      -0.00930000
C        1.25090000       3.06290000      -1.12440000
C        2.52970000       3.71740000      -1.47120000
O        2.02110000       2.65920000      -2.27550000
C        0.00680000       3.73760000      -1.41280000
C       -1.04900000       4.27470000      -1.61460000
H        0.30810000       0.53750000      -1.39820000
H        0.88150000       2.47970000       0.93720000
H        2.20230000       1.61380000       0.12080000
H        2.51200000       4.70400000      -1.92900000
H        3.41600000       3.48310000      -0.88260000
H       -1.97910000       4.75200000      -1.80380000
