17
Properties=species:S:1:pos:R:3 gdb_33779=T pbc="F F F"
N       -0.03830000      -1.17950000      -0.03700000
C       -0.04210000      -0.02320000      -0.02600000
C       -0.02150000       1.42640000       0.01410000
C       -0.19850000       2.17790000       1.37370000
N        0.71560000       3.25320000       0.85590000
C        1.34020000       2.19430000      -0.00940000
C       -0.06470000       4.17140000      -0.00140000
C       -0.94870000       3.44010000      -0.99350000
C       -0.93770000       2.10880000      -0.99720000
H       -1.21030000       2.49460000       1.63340000
H        0.27200000       1.66190000       2.21410000
H        2.13200000       1.68170000       0.54230000
H        1.70210000       2.52560000      -0.98440000
H       -0.66680000       4.81920000       0.64850000
H        0.63780000       4.83310000      -0.52410000
H       -1.56820000       4.01430000      -1.67590000
H       -1.53390000       1.50150000      -1.66760000
