21
Properties=species:S:1:pos:R:3 gdb_73283=T pbc="F F F"
O       -0.07520000       1.38710000       0.03010000
C        0.06490000      -0.02840000      -0.03770000
C        0.17450000      -0.49870000      -1.52030000
C       -1.37910000      -0.55830000      -1.56650000
C       -1.38410000      -0.60700000      -0.02310000
O       -1.43290000      -1.96360000       0.37860000
C       -0.73420000      -2.23090000       1.58410000
C        0.76610000      -2.00920000       1.39490000
C        1.03040000      -0.54170000       1.02730000
H        0.76360000       1.77780000      -0.23850000
H        0.68120000       0.19240000      -2.19930000
H        0.62660000      -1.48910000      -1.61330000
H       -1.81460000       0.36760000      -1.94430000
H       -1.84070000      -1.41680000      -2.05600000
H       -2.11950000      -0.00270000       0.52570000
H       -1.11560000      -1.59840000       2.40410000
H       -0.95520000      -3.27270000       1.83420000
H        1.30810000      -2.27540000       2.30920000
H        1.11710000      -2.68150000       0.60320000
H        2.06990000      -0.39640000       0.70360000
H        0.88260000       0.08370000       1.91650000
