19
Properties=species:S:1:pos:R:3 gdb_34139=T pbc="F F F"
C        0.00700000      -1.17840000       0.01940000
C       -0.01900000       0.02510000       0.03740000
C       -0.04180000       1.45840000       0.04410000
C       -0.67300000       2.41210000       1.09570000
C       -0.05800000       3.34660000       0.02950000
C        1.20100000       2.42520000      -0.04180000
C        1.73980000       2.40510000      -1.47030000
C        0.39830000       2.38750000      -2.25950000
C       -0.58900000       2.40170000      -1.09490000
H        0.02750000      -2.23980000       0.00850000
H       -1.76370000       2.39310000       1.17080000
H       -0.20870000       2.41350000       2.08570000
H       -0.06400000       4.43700000       0.01540000
H        1.90600000       2.42560000       0.79160000
H        2.35070000       3.28600000      -1.69110000
H        2.35320000       1.51980000      -1.66300000
H        0.27750000       3.25890000      -2.91080000
H        0.28620000       1.49270000      -2.87920000
H       -1.65970000       2.37880000      -1.30630000
