19
Properties=species:S:1:pos:R:3 gdb_64564=T pbc="F F F"
C       -0.04940000       1.59970000       0.17660000
C        0.02830000       0.07200000       0.08860000
C       -1.31990000      -0.46720000       0.51890000
O       -2.17120000      -0.88390000      -0.22460000
C        0.71220000      -0.54180000      -1.19140000
C        2.08010000      -0.25890000      -0.48800000
C        1.24700000      -0.64340000       0.75380000
O        0.93830000      -2.03200000       0.53250000
C        0.59340000      -2.03940000      -0.88270000
H        0.90720000       2.08570000      -0.02290000
H       -0.77910000       1.98300000      -0.54420000
H       -0.37500000       1.91360000       1.17530000
H       -1.49670000      -0.40830000       1.61910000
H        0.47840000      -0.20470000      -2.19970000
H        2.91430000      -0.92140000      -0.72920000
H        2.39860000       0.78090000      -0.52240000
H        1.55910000      -0.49330000       1.78670000
H       -0.41030000      -2.44530000      -1.01850000
H        1.31650000      -2.64640000      -1.43880000
