15
Properties=species:S:1:pos:R:3 gdb_56111=T pbc="F F F"
N       -0.66360000       0.14950000      -1.02780000
C       -0.04410000      -0.05140000       0.16180000
O        1.04570000       0.39600000       0.45880000
C       -0.86110000      -0.91230000       1.15170000
N       -0.97480000      -2.31070000       0.76380000
C       -1.91560000      -2.76070000      -0.10530000
N       -2.74960000      -1.98120000      -0.69720000
C       -1.90910000      -4.20320000      -0.29270000
N       -1.93150000      -5.34520000      -0.47100000
H       -0.16830000       0.65410000      -1.74510000
H       -1.54770000      -0.30200000      -1.22940000
H       -0.35010000      -0.86190000       2.11300000
H       -1.87340000      -0.50910000       1.25180000
H       -0.26440000      -2.95390000       1.07070000
H       -3.41440000      -2.50360000      -1.25970000
