19
Properties=species:S:1:pos:R:3 gdb_36535=T pbc="F F F"
N       -0.08090000      -1.15960000      -0.03780000
C       -0.04030000      -0.00560000      -0.01420000
C       -0.00130000       1.46220000       0.00290000
N        1.36010000       1.97200000      -0.02370000
C        2.06000000       1.65670000      -1.27150000
C        3.48850000       2.18850000      -1.20130000
O        3.50690000       3.58350000      -0.95290000
C        2.84580000       3.88830000       0.26050000
C        1.39520000       3.41080000       0.23800000
H       -0.62080000       1.82850000      -0.83940000
H       -0.48840000       1.80260000       0.92410000
H        2.07540000       0.57070000      -1.40910000
H        1.54740000       2.10410000      -2.14500000
H        4.03910000       1.65260000      -0.41170000
H        4.00040000       2.03130000      -2.15430000
H        3.36890000       3.41960000       1.10970000
H        2.88750000       4.97450000       0.37930000
H        0.83760000       3.98060000      -0.53030000
H        0.92750000       3.61010000       1.20930000
