18
Properties=species:S:1:pos:R:3 gdb_80265=T pbc="F F F"
C       -0.23780000       1.53940000      -0.08310000
C       -0.03370000       0.04730000       0.00940000
C        1.30970000      -0.60840000      -0.20380000
N        2.50680000       0.16180000      -0.34540000
C        3.10620000       0.93590000       0.62100000
O        4.09570000       1.60890000       0.38140000
C        2.48370000       0.87080000       1.96490000
C        1.39490000       0.13750000       2.22350000
C        0.69080000      -0.63270000       1.18130000
H        0.60250000       2.09920000       0.33120000
H       -0.35740000       1.84420000      -1.12830000
H       -1.13930000       1.84210000       0.45960000
H       -0.86980000      -0.54180000      -0.35850000
H        1.33500000      -1.53700000      -0.76640000
H        2.93730000       0.22610000      -1.25580000
H        3.00000000       1.43840000       2.72970000
H        1.00820000       0.07500000       3.23790000
H        0.25220000      -1.56670000       1.51770000
