20
Properties=species:S:1:pos:R:3 gdb_75518=T pbc="F F F"
C        0.08080000       1.46000000       0.13300000
C        0.03510000      -0.03820000      -0.02360000
C       -1.11840000      -0.71130000      -0.09550000
C       -1.32240000      -2.19760000      -0.27850000
C       -1.20570000      -3.02600000       1.02750000
N       -0.00120000      -2.93090000       1.83520000
C        1.08460000      -2.47110000       1.40630000
O        1.37060000      -2.09770000       0.11170000
C        1.39850000      -0.68830000      -0.09950000
H        0.64790000       1.93100000      -0.68110000
H       -0.92260000       1.89200000       0.13420000
H        0.57980000       1.75000000       1.06690000
H       -2.03090000      -0.12440000      -0.00100000
H       -2.33860000      -2.36340000      -0.65620000
H       -0.63570000      -2.59810000      -1.02440000
H       -2.03350000      -2.75520000       1.69490000
H       -1.35730000      -4.08710000       0.78810000
H        1.93880000      -2.37470000       2.08310000
H        1.84540000      -0.54830000      -1.09130000
H        2.07750000      -0.20810000       0.62490000
