22
Properties=species:S:1:pos:R:3 gdb_120442=T pbc="F F F"
C       -0.12090000       1.54790000      -0.01470000
C       -0.10120000       0.02730000      -0.07540000
O       -1.36400000      -0.50610000      -0.40850000
C        1.12960000      -0.55990000      -0.83080000
N        1.80050000      -0.74660000       0.47220000
C        2.61820000      -1.93510000       0.64650000
C        3.48100000      -1.86540000       1.90450000
O        2.71770000      -1.78980000       3.10040000
C        0.49850000      -0.65490000       1.17390000
H        0.85570000       1.93250000       0.29260000
H       -0.35380000       1.97410000      -0.99900000
H       -0.87680000       1.89340000       0.69770000
H       -1.73160000       0.01460000      -1.13060000
H        0.85310000      -1.50550000      -1.32180000
H        1.66900000       0.07980000      -1.53940000
H        2.00240000      -2.85400000       0.67550000
H        3.28520000      -2.01590000      -0.22180000
H        4.08060000      -2.77910000       1.98300000
H        4.17240000      -1.01410000       1.82210000
H        2.35570000      -0.90050000       3.15340000
H        0.49930000      -0.08230000       2.10880000
H        0.02490000      -1.63170000       1.34870000
