20
Properties=species:S:1:pos:R:3 gdb_67467=T pbc="F F F"
C       -0.07830000       1.50440000      -0.00530000
C        0.05850000       0.01390000       0.03160000
C        0.82230000      -0.81630000      -0.91640000
C        1.83020000      -1.84920000      -0.43450000
C        1.61040000      -2.36420000       1.00750000
O        0.91620000      -1.45410000       1.84790000
C       -0.22940000      -0.89620000       1.23670000
C       -1.05950000      -1.77020000       0.25510000
N       -0.66210000      -0.93540000      -0.92480000
H        0.71920000       1.98140000       0.57640000
H       -0.01760000       1.87370000      -1.03340000
H       -1.03780000       1.82790000       0.41370000
H        1.14080000      -0.30700000      -1.82350000
H        1.86900000      -2.70240000      -1.12210000
H        2.80910000      -1.35890000      -0.49660000
H        1.08290000      -3.32770000       0.98920000
H        2.57370000      -2.53810000       1.49430000
H       -0.80910000      -0.43500000       2.03830000
H       -0.82940000      -2.83500000       0.16940000
H       -2.13380000      -1.65980000       0.41970000
