15
Properties=species:S:1:pos:R:3 gdb_55597=T pbc="F F F"
N        0.53190000       0.20110000      -0.89140000
C        0.13670000      -0.01850000       0.39670000
N        0.83460000      -0.13330000       1.46210000
N       -1.25330000      -0.20510000       0.57650000
C       -2.26880000       0.01590000      -0.32580000
O       -2.11860000       0.40350000      -1.46400000
N       -3.52860000      -0.27530000       0.22930000
C       -4.77250000      -0.08350000      -0.36790000
O       -4.98990000       0.39650000      -1.44360000
H        1.46260000       0.55850000      -1.02290000
H       -0.18570000       0.47070000      -1.55390000
H        1.82650000      -0.01290000       1.26960000
H       -1.45920000      -0.42000000       1.54070000
H       -3.55480000      -0.69040000       1.14880000
H       -5.56900000      -0.44370000       0.31490000
