16
Properties=species:S:1:pos:R:3 gdb_125159=T pbc="F F F"
C       -0.12670000       1.54760000       0.01490000
C       -0.05070000       0.05960000      -0.06760000
C        0.12720000      -0.81550000      -1.12540000
C        0.23840000      -1.41040000      -2.53700000
O        1.33960000      -1.08760000      -3.33040000
C        0.23160000      -2.82450000      -1.80130000
N        0.11710000      -2.03300000      -0.55780000
N       -0.07070000      -2.01140000       0.76120000
N       -0.15590000      -0.72680000       1.05260000
H        0.81130000       2.02090000      -0.29430000
H       -0.92060000       1.94780000      -0.62420000
H       -0.33330000       1.83980000       1.04640000
H       -0.64490000      -1.26070000      -3.16160000
H        2.12010000      -1.03960000      -2.76660000
H       -0.62680000      -3.47190000      -1.99100000
H        1.16570000      -3.38380000      -1.88470000
