13
Properties=species:S:1:pos:R:3 gdb_129256=T pbc="F F F"
N       -0.10100000       1.31510000       0.01000000
C       -0.04760000       0.06440000       0.00290000
O        1.06430000      -0.74090000      -0.00630000
C        0.71920000      -2.14810000      -0.01250000
C       -0.77210000      -2.11310000      -0.00590000
N       -1.81920000      -2.89990000      -0.00570000
C       -2.84450000      -1.97840000       0.00370000
N       -2.48860000      -0.70120000       0.00920000
N       -1.14070000      -0.81690000       0.00280000
H        0.83350000       1.72010000       0.00820000
H        1.14140000      -2.61400000      -0.90820000
H        1.14910000      -2.62380000       0.87430000
H       -3.88420000      -2.26970000       0.00660000
