22
Properties=species:S:1:pos:R:3 gdb_113218=T pbc="F F F"
C       -0.34710000       1.44860000       0.13580000
C        0.27160000       0.06790000      -0.11050000
C        0.90610000      -0.51830000       1.13380000
C        0.05490000      -1.21420000       2.18190000
C        1.02690000      -2.00660000       1.34030000
O        0.50860000      -2.80670000       0.30520000
C        2.27830000      -2.55310000       1.96700000
C        2.51070000      -4.01490000       2.06810000
N        3.29310000      -3.19680000       1.12190000
H        0.40550000       2.16600000       0.48150000
H       -0.79330000       1.84980000      -0.77950000
H       -1.13050000       1.39900000       0.89940000
H       -0.48710000      -0.62530000      -0.48640000
H        1.03140000       0.14170000      -0.89890000
H        1.74070000       0.06000000       1.52530000
H        0.27200000      -1.06440000       3.23440000
H       -0.99840000      -1.34030000       1.94990000
H       -0.03920000      -3.49090000       0.70400000
H        2.69400000      -1.91200000       2.74240000
H        3.07280000      -4.42160000       2.90410000
H        1.75700000      -4.68420000       1.66190000
H        2.89210000      -3.31670000       0.19280000
