18
Properties=species:S:1:pos:R:3 gdb_34053=T pbc="F F F"
N       -0.00250000      -1.14220000       0.02880000
C        0.01880000       0.01390000       0.05740000
C        0.01890000       1.45960000       0.03270000
C       -1.19350000       2.09750000      -0.68570000
N       -0.88780000       3.18880000      -1.60010000
C        0.07940000       4.13400000      -1.05120000
C        1.44650000       3.49590000      -0.74170000
C        1.33180000       2.19540000       0.02860000
N        0.55520000       2.09120000       1.26280000
H       -1.72850000       1.32180000      -1.23850000
H       -1.88600000       2.46710000       0.08340000
H       -0.53170000       2.81170000      -2.47330000
H        0.21040000       4.95980000      -1.75680000
H       -0.35790000       4.57240000      -0.14350000
H        1.96590000       3.28550000      -1.68550000
H        2.08310000       4.19580000      -0.18570000
H        2.23670000       1.59270000       0.05040000
H        0.03490000       2.94900000       1.44120000
