21
Properties=species:S:1:pos:R:3 gdb_111600=T pbc="F F F"
O        0.63590000       0.05770000       1.42930000
C        0.14420000       0.09950000       0.09340000
C       -1.22510000      -0.55600000      -0.02130000
C       -2.02470000      -0.64770000      -1.35600000
C       -1.05850000      -1.40400000      -2.29070000
C       -1.03820000      -2.69570000      -1.44280000
C       -2.51640000      -3.15050000      -1.57500000
C       -2.79260000      -1.89890000      -0.73060000
C       -1.41700000      -2.08470000      -0.01570000
H        0.71240000      -0.86900000       1.67870000
H        0.07500000       1.16360000      -0.16120000
H        0.86860000      -0.35370000      -0.59820000
H       -1.86570000      -0.12830000       0.75980000
H       -2.55890000       0.21540000      -1.75320000
H       -1.46920000      -1.57910000      -3.28960000
H       -0.09060000      -0.91210000      -2.40560000
H       -0.20980000      -3.39110000      -1.57400000
H       -2.93710000      -3.24230000      -2.58200000
H       -2.73270000      -4.05650000      -1.00070000
H       -3.72200000      -1.70470000      -0.19640000
H       -1.28570000      -2.72430000       0.85790000
