15
Properties=species:S:1:pos:R:3 gdb_11500=T pbc="F F F"
N       -0.12390000       1.36380000       0.33160000
C        0.07330000       0.05200000      -0.08390000
N        1.16670000      -0.55830000      -0.32420000
C        2.41080000       0.10830000      -0.20500000
C        3.61920000      -0.77340000       0.04050000
C        3.42620000      -0.14540000      -1.30640000
C       -1.15490000      -0.71080000      -0.19950000
N       -2.15590000      -1.28260000      -0.28770000
H        0.58400000       2.02860000       0.05990000
H       -1.06350000       1.71810000       0.23820000
H        2.44320000       1.09050000       0.26590000
H        4.39490000      -0.38700000       0.69160000
H        3.41820000      -1.83330000       0.13710000
H        3.09760000      -0.78150000      -2.11910000
H        4.06380000       0.68190000      -1.59700000
