19
Properties=species:S:1:pos:R:3 gdb_64931=T pbc="F F F"
C        0.30200000       1.24130000       0.62750000
C       -0.02070000      -0.04430000      -0.11580000
C        0.51030000      -0.22230000      -1.50310000
N        1.08330000      -0.99950000      -0.39780000
C       -1.27800000      -0.65760000       0.24060000
C       -2.34120000      -1.13860000       0.54630000
C       -3.59820000      -1.71640000       0.92880000
C       -3.76480000      -3.20150000       0.92550000
N       -3.71350000      -2.47810000       2.19930000
H        1.24730000       1.66580000       0.27320000
H       -0.48520000       1.98610000       0.47700000
H        0.38560000       1.05570000       1.70300000
H       -0.05860000      -0.80340000      -2.22190000
H        1.08210000       0.60040000      -1.92600000
H        1.96020000      -0.57790000      -0.09840000
H       -4.47460000      -1.10770000       0.72110000
H       -4.73420000      -3.62320000       0.67520000
H       -2.90890000      -3.79610000       0.62100000
H       -2.78470000      -2.57110000       2.60440000
