18
Properties=species:S:1:pos:R:3 gdb_84351=T pbc="F F F"
C        0.00200000       1.60940000       0.00270000
C        0.11290000       0.08170000      -0.01670000
C        0.92150000      -0.48700000      -1.16290000
C        1.66850000      -1.52510000      -0.80250000
C        1.46250000      -1.84960000       0.66770000
C        2.67100000      -2.21170000       1.40390000
N        3.61340000      -2.46800000       2.02320000
C        0.80640000      -0.53420000       1.22890000
O        1.77640000       0.37890000       1.68680000
H        0.98870000       2.07170000       0.05790000
H       -0.50040000       1.95990000      -0.90450000
H       -0.58040000       1.95130000       0.86340000
H       -0.90500000      -0.33430000      -0.06920000
H        0.85490000      -0.08900000      -2.16960000
H        2.31350000      -2.11650000      -1.43960000
H        0.75510000      -2.68510000       0.77480000
H        0.08700000      -0.77400000       2.02390000
H        2.29360000      -0.03900000       2.38500000
