13
Properties=species:S:1:pos:R:3 gdb_25262=T pbc="F F F"
O        0.00240000      -0.03020000       0.00410000
C        0.05650000       1.16420000       0.00910000
O       -1.07490000       1.96780000       0.02870000
C       -0.74990000       3.37640000       0.03100000
C        0.74380000       3.40180000       0.01030000
C        1.16400000       2.11580000      -0.00180000
O        2.50950000       2.01680000      -0.02110000
C        2.95190000       3.30660000      -0.02100000
C        1.92000000       4.20630000      -0.00230000
H       -1.21270000       3.83680000      -0.84870000
H       -1.18790000       3.82820000       0.92770000
H        4.02330000       3.42570000      -0.03530000
H        2.01680000       5.28030000       0.00150000
