21
Properties=species:S:1:pos:R:3 gdb_89725=T pbc="F F F"
C        0.06670000       1.60320000      -0.05630000
C       -0.00820000       0.07390000       0.03320000
C        0.61560000      -0.66210000      -1.18450000
C        1.42310000      -1.81510000      -0.58830000
C        1.49960000      -3.16290000      -1.17830000
O        2.59800000      -2.25610000      -1.29100000
C        1.53570000      -1.54180000       0.87760000
C        2.42240000      -2.35510000       1.76570000
C        0.75550000      -0.50800000       1.20300000
H        1.10620000       1.93760000      -0.14280000
H       -0.48220000       1.97390000      -0.92850000
H       -0.36480000       2.07300000       0.83420000
H       -1.06900000      -0.20300000       0.12480000
H       -0.13060000      -0.99570000      -1.91000000
H        1.31000000       0.00140000      -1.71160000
H        1.67460000      -4.03510000      -0.54890000
H        0.96240000      -3.36650000      -2.10480000
H        3.42570000      -2.43370000       1.33360000
H        2.50060000      -1.91530000       2.76300000
H        2.04570000      -3.37950000       1.87990000
H        0.64670000      -0.11300000       2.20880000
