23
Properties=species:S:1:pos:R:3 gdb_110104=T pbc="F F F"
C       -0.54380000       1.08540000       0.21120000
O        0.34280000       0.02660000      -0.07880000
C        0.83390000      -0.61590000       1.05720000
C        0.10030000      -1.82740000       1.62470000
C       -1.23130000      -2.28060000       1.07010000
O       -2.32460000      -1.82070000       1.85950000
C        1.41750000      -1.98680000       0.86950000
C        1.42810000      -2.59540000      -0.52230000
C        2.63980000      -2.33770000       1.69930000
H       -0.07570000       1.83990000       0.86090000
H       -0.81260000       1.55240000      -0.73900000
H       -1.46390000       0.73200000       0.70110000
H        1.32410000       0.05950000       1.76170000
H        0.16490000      -1.95910000       2.70310000
H       -1.34010000      -1.96710000       0.02350000
H       -1.30360000      -3.37340000       1.09490000
H       -2.22700000      -0.86880000       1.96290000
H        0.60560000      -2.23470000      -1.14010000
H        2.36110000      -2.33870000      -1.03680000
H        1.37170000      -3.68850000      -0.46840000
H        2.70330000      -3.41980000       1.86340000
H        3.56000000      -2.02250000       1.19350000
H        2.61440000      -1.85530000       2.68150000
