14
Properties=species:S:1:pos:R:3 gdb_127888=T pbc="F F F"
C        0.09750000       1.43330000       0.05380000
N        0.20420000      -0.01120000       0.06490000
C        0.50400000      -0.65640000      -0.98280000
N        0.74660000       0.00800000      -2.24860000
N        1.33950000      -0.57250000      -3.17360000
N        1.75890000      -1.88420000      -2.95300000
C        1.18320000      -2.59670000      -1.93760000
O        1.32630000      -3.91950000      -2.06270000
N        0.55530000      -2.05450000      -0.96730000
H        0.85760000       1.84610000       0.72860000
H        0.20710000       1.89990000      -0.93010000
H       -0.87420000       1.71130000       0.47830000
H        2.08410000      -2.34440000      -3.78980000
H        0.90220000      -4.31220000      -1.28450000
