21
Properties=species:S:1:pos:R:3 gdb_115926=T pbc="F F F"
C       -0.04140000       1.15690000       0.66890000
O       -0.24920000      -0.23620000       0.52610000
C       -1.36980000      -0.56970000      -0.25870000
C       -1.29800000      -2.09480000      -0.49170000
C       -2.63380000      -2.82620000      -0.29880000
C       -3.34680000      -2.37930000       0.96370000
C       -2.56200000      -1.86830000       2.16730000
C       -3.25550000      -0.91000000       1.23840000
O       -2.57330000      -0.09660000       0.31600000
H        0.86060000       1.28400000       1.27150000
H        0.11190000       1.63930000      -0.30890000
H       -0.88640000       1.64290000       1.16900000
H       -1.31940000      -0.01800000      -1.20910000
H       -0.91230000      -2.27910000      -1.49830000
H       -0.55150000      -2.49140000       0.20100000
H       -3.29430000      -2.62990000      -1.15370000
H       -2.45050000      -3.90650000      -0.28780000
H       -4.29130000      -2.87540000       1.16650000
H       -3.00040000      -2.01230000       3.14920000
H       -1.48010000      -1.90150000       2.15420000
H       -4.12040000      -0.36550000       1.60020000
