14
Properties=species:S:1:pos:R:3 gdb_132998=T pbc="F F F"
C        0.04890000       1.43240000      -0.10750000
N        0.00990000      -0.01570000      -0.09470000
C       -1.09790000      -0.62510000       0.05200000
C       -1.14390000      -2.08810000       0.06570000
C       -2.30510000      -2.72050000       0.21930000
O       -3.49660000      -2.03470000       0.36990000
C       -3.37850000      -0.69740000       0.34760000
F       -4.56970000      -0.17370000       0.49890000
N       -2.35510000       0.01950000       0.21130000
H        0.72260000       1.77340000       0.68820000
H        0.49560000       1.76420000      -1.05280000
H       -0.92590000       1.91510000       0.01700000
H       -0.22190000      -2.64110000      -0.05080000
H       -2.46890000      -3.78780000       0.24610000
