18
Properties=species:S:1:pos:R:3 gdb_36425=T pbc="F F F"
N       -0.43230000      -0.83000000      -0.48980000
C       -0.18200000       0.29230000      -0.37780000
C        0.13070000       1.72400000      -0.26820000
N        1.49420000       1.93530000       0.21180000
C        2.54090000       1.55440000      -0.75990000
C        3.05080000       2.85710000      -1.35080000
N        1.95020000       3.73580000      -1.80430000
C        2.57180000       3.95550000      -0.48060000
C        1.76570000       3.32190000       0.64060000
H       -0.07320000       2.19970000      -1.24050000
H       -0.56550000       2.15660000       0.45820000
H        3.36420000       1.03850000      -0.24850000
H        2.13380000       0.86670000      -1.50650000
H        4.01090000       2.89240000      -1.85510000
H        2.31410000       4.41700000      -2.46570000
H        3.15650000       4.85120000      -0.29870000
H        0.83010000       3.84930000       0.84830000
H        2.36310000       3.32360000       1.56270000
