14
Properties=species:S:1:pos:R:3 gdb_126456=T pbc="F F F"
C       -0.05880000       1.54720000      -0.11580000
C       -0.01920000       0.02800000       0.11500000
C       -1.37890000      -0.58660000       0.08080000
N       -1.90980000      -1.20160000       1.10950000
O       -3.16400000      -1.60810000       0.65790000
C       -3.24690000      -1.18390000      -0.61080000
N       -2.19580000      -0.55180000      -1.03220000
C       -4.44060000      -1.46610000      -1.33230000
N       -5.41200000      -1.69740000      -1.91390000
H        0.95610000       1.95290000      -0.12150000
H       -0.52950000       1.78220000      -1.07390000
H       -0.62280000       2.04960000       0.67540000
H        0.58660000      -0.44770000      -0.66450000
H        0.43830000      -0.21040000       1.07860000
