13
Properties=species:S:1:pos:R:3 gdb_128264=T pbc="F F F"
C        0.00680000       1.47920000       0.05540000
N       -0.10440000       0.03440000       0.16580000
C       -1.20710000      -0.71380000       0.03850000
N       -1.12880000      -2.00970000       0.16930000
C       -2.27390000      -2.72820000       0.03170000
O       -2.41890000      -3.90790000       0.11260000
O       -3.47050000      -1.97390000      -0.24780000
N       -3.45650000      -0.60630000      -0.36890000
N       -2.38590000       0.01310000      -0.23560000
H        0.69350000       1.74740000      -0.75380000
H       -0.97460000       1.89770000      -0.15680000
H        0.38320000       1.90460000       0.99120000
H        0.72840000      -0.50340000       0.36160000
