15
Properties=species:S:1:pos:R:3 gdb_104946=T pbc="F F F"
O        0.18720000       1.28690000       0.34690000
C        0.03660000       0.00730000      -0.22480000
C       -1.39540000      -0.49340000      -0.11460000
C       -1.65370000      -1.90200000       0.25430000
O       -1.74840000      -0.87960000       1.23810000
C       -2.39860000       0.25280000      -0.82650000
C       -3.21290000       0.88900000      -1.45670000
C       -4.13760000       1.59920000      -2.15590000
C       -4.95870000       2.22930000      -2.77790000
H       -0.09740000       1.22280000       1.26590000
H        0.32280000       0.09850000      -1.27700000
H        0.69450000      -0.73620000       0.24990000
H       -2.59590000      -2.35850000      -0.04150000
H       -0.80970000      -2.58310000       0.35800000
H       -5.68100000       2.78520000      -3.32260000
