19
Properties=species:S:1:pos:R:3 gdb_41532=T pbc="F F F"
C        0.09320000       1.47250000      -0.28640000
N        1.53840000       1.38550000       0.03730000
C        1.40830000       0.10070000       0.56490000
N        2.09760000      -0.51960000       1.41670000
C        1.62200000      -1.82500000       1.86430000
C        0.54900000      -2.53070000       1.01210000
C       -0.86670000      -1.93290000       1.03690000
O       -0.96190000      -0.53030000       0.77460000
C        0.02600000      -0.06620000      -0.09370000
H       -0.50850000       1.98870000       0.46900000
H       -0.12430000       1.86590000      -1.28220000
H        2.05030000       2.11270000       0.52000000
H        2.49390000      -2.48750000       1.93260000
H        1.25700000      -1.71400000       2.89630000
H        0.91000000      -2.60490000      -0.02050000
H        0.45060000      -3.56480000       1.36650000
H       -1.48970000      -2.48100000       0.31260000
H       -1.31580000      -2.06760000       2.02690000
H        0.04010000      -0.60700000      -1.04970000
