15
Properties=species:S:1:pos:R:3 gdb_85715=T pbc="F F F"
C        0.47180000       1.42250000      -0.29520000
C        0.03070000       0.02990000       0.09360000
O        0.60580000      -0.99960000      -0.75810000
C        1.32330000      -1.60730000       0.32110000
C        2.77700000      -1.53770000       0.15200000
N        3.92300000      -1.49650000       0.01300000
C        0.67580000      -0.63000000       1.35740000
C        1.53630000       0.18100000       2.19630000
N        2.20560000       0.84130000       2.86810000
H        1.56040000       1.51780000      -0.27240000
H        0.12290000       1.64270000      -1.30800000
H        0.04220000       2.16220000       0.38780000
H       -1.06120000      -0.05260000       0.09480000
H        1.03590000      -2.65430000       0.46840000
H       -0.05470000      -1.14580000       1.98290000
