21
Properties=species:S:1:pos:R:3 gdb_61851=T pbc="F F F"
C        0.05430000       1.63820000       0.05460000
C       -0.02580000       0.11630000       0.03940000
O       -1.42050000      -0.26550000       0.00310000
C       -1.94390000      -0.91430000       1.05550000
O       -3.08730000      -1.25810000       1.10530000
C        0.65800000      -0.51660000      -1.16030000
C        2.20780000      -0.42610000      -1.26200000
C        2.21560000      -1.88360000      -1.79770000
C        0.78400000      -2.06420000      -1.22330000
H        1.09880000       1.96380000       0.05850000
H       -0.43580000       2.05430000      -0.83050000
H       -0.43750000       2.04580000       0.94220000
H        0.41940000      -0.28860000       0.96050000
H       -1.20450000      -1.09270000       1.86190000
H        0.18950000      -0.13480000      -2.07390000
H        2.63170000       0.35740000      -1.89410000
H        2.67050000      -0.35940000      -0.27110000
H        2.21960000      -1.91170000      -2.89080000
H        2.99740000      -2.55250000      -1.43180000
H        0.80510000      -2.50380000      -0.22010000
H        0.05230000      -2.60800000      -1.82340000
