18
Properties=species:S:1:pos:R:3 gdb_55707=T pbc="F F F"
C        0.46510000       0.83200000       0.59780000
C       -0.52880000       0.10490000      -0.28000000
O       -1.72470000       0.16380000      -0.10940000
C        0.04010000      -0.76140000      -1.41290000
C        0.15380000      -2.22650000      -0.97980000
C       -1.12930000      -3.02580000      -0.79850000
C       -0.23690000      -3.32390000      -1.96320000
C        1.24450000      -2.51180000      -0.08210000
N        2.12730000      -2.71330000       0.63920000
H        1.19500000       0.12540000       1.00960000
H        1.03160000       1.55400000      -0.00270000
H       -0.05360000       1.35050000       1.40460000
H       -0.66220000      -0.70310000      -2.24830000
H        1.01600000      -0.39670000      -1.74720000
H       -1.16460000      -3.73840000       0.01640000
H       -2.04540000      -2.47050000      -0.96040000
H       -0.53630000      -2.99680000      -2.95250000
H        0.34430000      -4.23810000      -1.94400000
