20
Properties=species:S:1:pos:R:3 gdb_60266=T pbc="F F F"
C        0.01860000       1.54470000      -0.03350000
C        0.02120000       0.01900000       0.04350000
O        0.69020000      -0.43740000       1.22050000
C       -1.39160000      -0.57390000      -0.04840000
C       -1.38650000      -2.10360000      -0.12540000
C       -2.79710000      -2.75080000      -0.06210000
O       -2.87390000      -3.56420000      -1.25900000
C       -1.71490000      -3.33080000      -1.92000000
N       -0.83790000      -2.56840000      -1.41930000
H        1.03690000       1.92980000       0.06710000
H       -0.39280000       1.89410000      -0.98590000
H       -0.59200000       1.97660000       0.77060000
H        0.61500000      -0.38780000      -0.78150000
H        0.26690000      -0.01550000       1.97690000
H       -1.96840000      -0.25710000       0.83370000
H       -1.90840000      -0.17140000      -0.92860000
H       -0.73850000      -2.47670000       0.67440000
H       -2.94650000      -3.40270000       0.80190000
H       -3.60840000      -2.01570000      -0.09930000
H       -1.63450000      -3.84680000      -2.87070000
