21
Properties=species:S:1:pos:R:3 gdb_39080=T pbc="F F F"
C       -0.08890000       1.59860000       0.25240000
C        1.43330000       1.44310000       0.02060000
C        1.82520000       0.61240000       1.27350000
C        0.65320000      -0.44640000       1.28740000
C       -0.06970000       0.03550000       0.02720000
C       -1.14590000      -0.59910000      -0.79310000
C       -0.90280000      -0.38260000      -2.09170000
C        0.37910000       0.41440000      -2.33050000
C        1.10200000       0.28960000      -0.97010000
H       -0.42310000       1.97030000       1.22580000
H       -0.61040000       2.12840000      -0.54510000
H        2.07930000       2.28630000      -0.22940000
H        2.80580000       0.13880000       1.16900000
H        1.84400000       1.22670000       2.17830000
H        1.01860000      -1.47350000       1.19490000
H        0.04410000      -0.38280000       2.19410000
H       -2.02220000      -1.09950000      -0.39610000
H       -1.55550000      -0.68440000      -2.90480000
H        0.97640000       0.01330000      -3.15620000
H        0.13930000       1.45060000      -2.60470000
H        1.85220000      -0.50800000      -1.02040000
