19
Properties=species:S:1:pos:R:3 gdb_79949=T pbc="F F F"
C       -0.11020000       1.50900000      -0.28070000
C        0.04970000       0.02310000      -0.04940000
C        1.35860000      -0.74250000      -0.21200000
C        2.61650000       0.04890000      -0.10600000
C        2.77620000       0.58640000       1.10350000
C        1.65850000       0.17360000       2.05950000
C        1.05870000       1.28460000       2.79740000
C        0.58530000       2.19220000       3.42810000
C        0.69500000      -0.61940000       1.15480000
H        0.77900000       2.07230000       0.00650000
H       -0.31030000       1.70810000      -1.33970000
H       -0.95080000       1.90110000       0.30030000
H       -0.80620000      -0.55160000      -0.39850000
H        1.35380000      -1.66740000      -0.77900000
H        3.29590000       0.18560000      -0.94020000
H        3.57300000       1.25060000       1.41530000
H        2.07470000      -0.52000000       2.80660000
H        0.15890000       2.99430000       3.97770000
H        0.18550000      -1.46120000       1.60810000
