18
Properties=species:S:1:pos:R:3 gdb_106439=T pbc="F F F"
C        0.01650000       1.37150000       0.01590000
O       -0.05530000      -0.04140000      -0.07330000
C       -1.33290000      -0.54400000      -0.03980000
C       -2.39670000      -0.53160000       1.09020000
N       -3.06250000      -1.37850000      -0.00430000
C       -2.54150000      -0.31690000      -0.98860000
C       -1.66420000      -2.05030000      -0.15370000
C       -1.40670000      -2.78810000      -1.37040000
C       -1.16910000      -3.42600000      -2.36150000
H        1.07360000       1.63960000      -0.02830000
H       -0.51040000       1.85620000      -0.81760000
H       -0.40630000       1.73980000       0.96110000
H       -2.18630000      -1.08600000       2.00830000
H       -2.93330000       0.39800000       1.28920000
H       -3.08630000       0.62690000      -0.91790000
H       -2.46690000      -0.67260000      -2.01640000
H       -1.41890000      -2.65280000       0.72580000
H       -0.96250000      -3.98630000      -3.23980000
