25
Properties=species:S:1:pos:R:3 gdb_85940=T pbc="F F F"
C        0.32000000       1.72390000      -0.03330000
C        0.09960000       0.20450000      -0.01340000
C        0.76910000      -0.50310000      -1.20820000
C        2.24500000      -0.73440000      -0.80320000
C        2.82040000      -2.03230000      -1.37410000
O        2.97870000       0.38240000      -1.33100000
C        2.23040000      -0.70600000       0.75750000
C        0.75530000      -0.53160000       1.18510000
C        0.56960000       0.09910000       2.56420000
H        1.38270000       1.97820000      -0.06510000
H       -0.14270000       2.15770000      -0.92610000
H       -0.13030000       2.20840000       0.83860000
H       -0.98130000       0.01860000      -0.01490000
H        0.28690000      -1.47230000      -1.37760000
H        0.71680000       0.06240000      -2.14220000
H        2.76080000      -2.03030000      -2.46670000
H        3.87400000      -2.14980000      -1.09100000
H        2.27790000      -2.90540000      -0.99650000
H        3.89430000       0.28980000      -1.04580000
H        2.67880000      -1.60330000       1.19650000
H        2.82650000       0.14920000       1.09430000
H        0.30130000      -1.53260000       1.21370000
H        1.03800000       1.08710000       2.62210000
H       -0.49160000       0.21630000       2.81080000
H        1.02200000      -0.52450000       3.34310000
