18
Properties=species:S:1:pos:R:3 gdb_65865=T pbc="F F F"
C       -0.00280000       1.61530000       0.16830000
C        0.03310000       0.08650000       0.07320000
C        0.70890000      -0.45550000      -1.20800000
C        1.40120000      -1.75420000      -0.76240000
C        1.61340000      -1.58720000       0.74440000
O        2.30500000      -2.25350000       1.47830000
N        0.84390000      -0.51150000       1.12880000
C       -1.40320000      -0.44230000       0.22180000
O       -2.06040000      -0.93320000      -0.65670000
H        1.01700000       2.00990000       0.18460000
H       -0.53300000       2.03860000      -0.69020000
H       -0.51440000       1.95010000       1.07810000
H       -0.03270000      -0.60440000      -1.99340000
H        1.44610000       0.27240000      -1.55810000
H        0.76500000      -2.63240000      -0.91800000
H        2.35250000      -1.94900000      -1.25990000
H        0.76720000      -0.26050000       2.10270000
H       -1.80270000      -0.34250000       1.25880000
