20
Properties=species:S:1:pos:R:3 gdb_93642=T pbc="F F F"
C        0.80650000       1.26650000      -0.46630000
C        0.02290000       0.09310000       0.12510000
O       -0.13510000      -0.96960000      -0.81620000
C        1.00900000      -1.80380000      -0.76520000
C        1.63110000      -1.63360000       0.66150000
C        3.02480000      -1.19980000       0.60160000
N        4.12910000      -0.86070000       0.54580000
C        0.67070000      -0.60300000       1.34220000
C        1.28800000       0.29870000       2.40730000
H        1.84540000       1.00310000      -0.68750000
H        0.32950000       1.58610000      -1.39660000
H        0.81580000       2.11620000       0.22300000
H       -0.99060000       0.42730000       0.37140000
H        0.68550000      -2.83230000      -0.94670000
H        1.74000000      -1.53210000      -1.53720000
H        1.61250000      -2.57970000       1.20900000
H       -0.11990000      -1.20300000       1.80500000
H        2.11940000       0.88810000       2.01300000
H        0.53580000       0.98880000       2.80270000
H        1.66920000      -0.29060000       3.24680000
