18
Properties=species:S:1:pos:R:3 gdb_96911=T pbc="F F F"
C       -0.19880000       1.42040000       0.28280000
N       -0.27760000      -0.03350000       0.32850000
C        0.64230000      -0.67930000       0.87250000
O        1.81070000      -0.24950000       1.49860000
C        2.08280000      -1.58890000       1.97270000
C        3.45720000      -2.08530000       2.22390000
C        2.48050000      -1.86940000       3.37790000
C        0.89710000      -2.15310000       1.17680000
O       -0.08370000      -2.90680000       1.82320000
H        0.58990000       1.84380000       0.91570000
H       -0.02360000       1.73820000      -0.75130000
H       -1.16430000       1.83760000       0.58610000
H        3.70140000      -3.10020000       1.92710000
H        4.26910000      -1.37310000       2.12490000
H        2.66150000      -1.02160000       4.02940000
H        2.04150000      -2.73820000       3.85790000
H        1.20550000      -2.72350000       0.29610000
H       -0.53710000      -2.33690000       2.45430000
