16
Properties=species:S:1:pos:R:3 gdb_77026=T pbc="F F F"
N        0.09060000       1.49160000       0.03090000
C       -0.00050000       0.06470000      -0.02060000
C       -1.31280000      -0.63690000       0.08780000
C       -2.61690000       0.13900000       0.21130000
C       -3.78220000      -0.73380000       0.06700000
N       -4.69100000      -1.43940000      -0.03530000
C       -0.54900000      -0.72000000      -1.24250000
C       -1.00550000       0.05960000      -2.35040000
N       -1.36620000       0.75620000      -3.20280000
H        1.01810000       1.79120000      -0.25230000
H       -0.55960000       1.93790000      -0.60900000
H        0.83440000      -0.41760000       0.47710000
H       -1.30940000      -1.56530000       0.64940000
H       -2.66220000       0.62740000       1.19140000
H       -2.68690000       0.93020000      -0.54200000
H       -0.09560000      -1.67050000      -1.50020000
