16
Properties=species:S:1:pos:R:3 gdb_45943=T pbc="F F F"
O        0.06640000       0.05270000      -0.34630000
C        0.01890000       1.22850000      -0.07110000
C       -1.23250000       2.04540000       0.25530000
C       -0.82350000       3.52460000       0.09780000
C        0.71290000       3.55740000       0.08080000
O        1.40010000       4.54190000       0.16220000
C        1.19820000       2.14260000      -0.02670000
C        2.46660000       1.67680000       0.64590000
N        2.41850000       1.80040000      -0.79040000
H       -2.06510000       1.73300000      -0.37870000
H       -1.51700000       1.81510000       1.28920000
H       -1.16600000       3.93460000      -0.85960000
H       -1.20760000       4.18500000       0.87830000
H        3.04590000       2.44170000       1.15520000
H        2.43910000       0.68960000       1.09990000
H        2.24200000       0.87770000      -1.19520000
