13
Properties=species:S:1:pos:R:3 gdb_20428=T pbc="F F F"
C       -0.16250000       1.29460000      -0.27880000
C        1.25620000       1.00950000       0.08450000
N        0.24660000      -0.04150000       0.14040000
C       -0.15480000      -0.53710000       1.36480000
N       -1.42740000      -0.65570000       1.74030000
N       -1.27440000      -1.25430000       2.92010000
N       -0.02430000      -1.49130000       3.27030000
N        0.71270000      -1.03860000       2.28770000
H       -0.75740000       1.87640000       0.42010000
H       -0.45700000       1.37980000      -1.31990000
H        2.00610000       0.88410000      -0.68970000
H        1.62580000       1.39720000       1.02950000
H       -2.05500000      -1.50880000       3.50600000
