16
Properties=species:S:1:pos:R:3 gdb_68628=T pbc="F F F"
O       -0.08300000       1.38150000       0.03800000
C        0.00900000       0.00500000      -0.02130000
C        0.36650000      -0.82070000      -1.30700000
C       -0.31280000      -1.92930000      -0.47390000
O        0.56670000      -2.11220000       0.63980000
C        0.84850000      -0.75210000       1.02710000
C       -1.31620000      -0.83170000       0.01830000
C       -2.02320000      -1.01340000       1.27130000
N       -2.57930000      -1.15610000       2.27470000
H        0.80010000       1.75550000       0.13340000
H       -0.20610000      -0.50390000      -2.17940000
H        1.42050000      -0.96870000      -1.54820000
H       -0.63860000      -2.88850000      -0.86590000
H        1.92170000      -0.54190000       0.93940000
H        0.52020000      -0.56990000       2.05530000
H       -1.99960000      -0.51440000      -0.77080000
