17
Properties=species:S:1:pos:R:3 gdb_67765=T pbc="F F F"
O       -0.16350000       1.45960000       0.02090000
C       -0.02040000       0.05640000       0.00360000
C        0.69910000      -0.57550000      -1.18560000
C        0.06430000      -1.69350000      -1.57620000
C       -1.18400000      -1.88120000      -0.82500000
C       -1.17630000      -1.90050000       0.79690000
C        0.07910000      -1.73050000       1.54060000
C        0.71020000      -0.60330000       1.17080000
C       -1.39820000      -0.65260000       0.00170000
H        0.71380000       1.85570000       0.01530000
H        1.68380000      -0.25390000      -1.50840000
H        0.44020000      -2.41070000      -2.29670000
H       -2.01430000      -2.43370000      -1.24950000
H       -2.00250000      -2.46300000       1.21600000
H        0.46160000      -2.46450000       2.24040000
H        1.69760000      -0.28900000       1.49220000
H       -2.30860000      -0.06550000       0.01300000
