16
Properties=species:S:1:pos:R:3 gdb_45815=T pbc="F F F"
N       -0.08320000       1.29640000       0.21740000
C        0.00500000       0.03960000       0.03780000
N        1.17830000      -0.69970000      -0.07010000
C        1.22010000      -2.00570000      -0.54550000
N        0.23820000      -2.73440000      -0.88550000
C       -1.09780000      -2.20370000      -0.72290000
C       -1.77320000      -2.69870000       0.57710000
O       -1.60970000      -1.40230000       1.19620000
C       -1.24390000      -0.79960000      -0.06680000
H        0.83710000       1.73990000       0.28450000
H        2.05480000      -0.21360000       0.04620000
H        2.23300000      -2.39900000      -0.62800000
H       -1.66230000      -2.36560000      -1.64380000
H       -2.83170000      -2.96880000       0.47180000
H       -1.23660000      -3.48840000       1.11090000
H       -2.05110000      -0.17400000      -0.46100000
