17
Properties=species:S:1:pos:R:3 gdb_2227=T pbc="F F F"
C       -0.03460000       1.50720000       0.02130000
C        0.05280000      -0.00040000       0.00350000
C       -0.81680000      -0.80510000       0.93620000
C        0.69040000      -0.79840000       1.13560000
C        1.41450000      -1.92290000       0.47730000
C        1.26850000      -1.89300000      -0.84970000
C        0.46950000      -0.68930000      -1.30380000
H        0.90530000       1.96390000      -0.31020000
H       -0.82970000       1.86840000      -0.64250000
H       -0.25140000       1.88200000       1.02680000
H       -1.41790000      -0.24450000       1.64600000
H       -1.27190000      -1.72530000       0.58300000
H        1.09870000      -0.31970000       2.01970000
H        1.95320000      -2.68180000       1.03390000
H        1.65070000      -2.63440000      -1.54230000
H       -0.39530000      -0.97120000      -1.91880000
H        1.07950000      -0.01820000      -1.92610000
