16
Properties=species:S:1:pos:R:3 gdb_47635=T pbc="F F F"
O        0.15160000       0.73840000      -1.44240000
C        0.02370000       1.36200000      -0.42080000
C       -1.25630000       2.11580000      -0.07850000
N       -1.23540000       2.61920000       1.28350000
C       -0.56340000       3.89320000       1.46040000
C        0.93050000       3.81340000       1.36210000
C        1.67310000       2.74930000       1.03960000
C        1.20370000       1.41530000       0.58870000
O        1.81120000       0.39950000       0.83970000
H       -1.41540000       2.89530000      -0.84640000
H       -2.07280000       1.39570000      -0.19020000
H       -2.17250000       2.66570000       1.65960000
H       -0.91570000       4.66940000       0.74920000
H       -0.80990000       4.27560000       2.45940000
H        1.44340000       4.73230000       1.64020000
H        2.75570000       2.81340000       1.11340000
