14
Properties=species:S:1:pos:R:3 gdb_34273=T pbc="F F F"
C        0.08150000      -1.14240000       0.16840000
C        0.00010000       0.05150000       0.03350000
C       -0.11050000       1.46660000      -0.09500000
C       -1.37570000       2.22970000       0.40960000
N       -0.99840000       3.66670000       0.20550000
C       -0.01610000       3.55990000      -0.58140000
O        1.30840000       3.76230000      -0.13890000
C        1.33570000       2.29170000      -0.30520000
C        0.30320000       2.22210000      -1.32310000
H        0.15140000      -2.19590000       0.28340000
H       -2.27550000       1.88700000      -0.12110000
H       -1.54310000       2.11920000       1.48450000
H        2.29620000       1.81060000      -0.16830000
H        0.29010000       1.97400000      -2.37610000
