23
Properties=species:S:1:pos:R:3 gdb_65124=T pbc="F F F"
C        0.65030000       0.22710000      -1.36110000
C        0.06400000       0.04280000       0.02780000
C        0.97550000      -0.53520000       1.08840000
C        0.59640000       0.92320000       1.13780000
C       -1.37630000      -0.44100000       0.03170000
C       -2.43320000       0.05320000       1.07480000
C       -2.51430000       1.39730000       0.28690000
C       -2.50200000       0.27570000      -0.79050000
C       -3.52150000      -0.48610000       0.10260000
H        1.71430000       0.48030000      -1.31260000
H        0.55330000      -0.69000000      -1.95470000
H        0.14040000       1.02930000      -1.90660000
H        0.53520000      -1.19410000       1.83030000
H        1.98990000      -0.79830000       0.80660000
H        1.35240000       1.65960000       0.88370000
H       -0.08140000       1.24010000       1.92220000
H       -1.38680000      -1.52950000      -0.11350000
H       -2.40250000      -0.07780000       2.15840000
H       -3.44800000       1.95810000       0.38860000
H       -1.64950000       2.05900000       0.32890000
H       -2.54590000       0.40030000      -1.87380000
H       -3.57630000      -1.57120000      -0.02340000
H       -4.51560000      -0.04020000       0.19240000
