18
Properties=species:S:1:pos:R:3 gdb_127343=T pbc="F F F"
C       -0.23810000       1.38400000      -0.05290000
N       -0.06810000      -0.05190000      -0.05290000
C        0.16890000      -0.89040000      -1.08040000
N        0.25180000      -2.13550000      -0.65390000
C        0.05080000      -2.00930000       0.69300000
C        0.05910000      -3.17240000       1.62960000
C        1.41050000      -3.88770000       1.65150000
O        1.28910000      -4.99490000       2.53140000
N       -0.14490000      -0.76110000       1.10040000
H       -0.13390000       1.75030000      -1.07590000
H       -1.22850000       1.64740000       0.32690000
H        0.51980000       1.85380000       0.57900000
H        0.26930000      -0.55130000      -2.10110000
H       -0.19020000      -2.82650000       2.63580000
H       -0.70340000      -3.89830000       1.32600000
H        1.66790000      -4.20480000       0.63090000
H        2.19160000      -3.18860000       1.99040000
H        2.12180000      -5.47520000       2.52380000
