21
Properties=species:S:1:pos:R:3 gdb_42062=T pbc="F F F"
C       -0.07880000       1.48180000       0.04490000
C        1.35590000       2.12970000       0.02700000
C        1.72200000       2.82490000      -1.25560000
C        2.46230000       2.33550000      -2.25830000
C        3.01830000       0.97860000      -2.36810000
C        2.32540000      -0.16620000      -2.37620000
C        0.81930000      -0.29310000      -2.31200000
C        0.34600000      -0.79960000      -0.97110000
C       -0.04310000      -0.02740000       0.04550000
H       -0.61610000       1.82390000       0.93370000
H       -0.64700000       1.85430000      -0.81440000
H        1.41430000       2.86460000       0.83760000
H        2.09080000       1.35160000       0.24760000
H        1.36330000       3.84910000      -1.35150000
H        2.71720000       3.01180000      -3.07500000
H        4.09740000       0.91990000      -2.51240000
H        2.87580000      -1.10140000      -2.46280000
H        0.36920000       0.67960000      -2.53010000
H        0.49440000      -0.98760000      -3.09780000
H        0.36950000      -1.87820000      -0.82790000
H       -0.32030000      -0.51300000       0.97920000
