23
Properties=species:S:1:pos:R:3 gdb_100012=T pbc="F F F"
C        0.22740000       1.42750000       0.38080000
C       -0.05760000      -0.02530000      -0.02180000
O        0.22460000      -0.87810000       1.10720000
C       -1.57690000      -0.21120000      -0.22740000
O       -2.30240000       0.07150000       0.95290000
C        0.72580000      -0.52110000      -1.25110000
C        0.66870000      -2.02550000      -1.48560000
C        0.79180000       0.33990000      -2.49200000
C        2.02630000       0.15170000      -1.64580000
H        1.24650000       1.54140000       0.76480000
H        0.10260000       2.12270000      -0.45400000
H       -0.47450000       1.71380000       1.16610000
H        1.11870000      -0.68670000       1.40790000
H       -1.92980000       0.47880000      -0.99960000
H       -1.77700000      -1.23500000      -0.57080000
H       -1.85390000      -0.42520000       1.64890000
H       -0.34050000      -2.36620000      -1.73730000
H        1.32230000      -2.30300000      -2.31790000
H        0.99100000      -2.57330000      -0.59680000
H        0.74050000      -0.16380000      -3.45150000
H        0.31930000       1.31580000      -2.48570000
H        2.38140000       1.00520000      -1.08120000
H        2.81930000      -0.48250000      -2.02790000
