19
Properties=species:S:1:pos:R:3 gdb_79498=T pbc="F F F"
C       -0.19630000       1.61320000      -0.15850000
C       -0.05460000       0.10560000      -0.00960000
C        1.15600000      -0.61570000      -0.64300000
C        2.13640000      -0.22760000       0.52550000
C        2.58370000      -1.68890000       0.73090000
C        1.08870000      -1.79330000       0.38420000
C        0.73710000      -0.46850000       1.19390000
C        0.42270000      -0.44010000       2.64550000
O        1.25080000      -0.39020000       3.52420000
H        0.75120000       2.12860000       0.02910000
H       -0.52320000       1.87460000      -1.17090000
H       -0.93890000       2.01430000       0.53980000
H       -1.01210000      -0.39970000      -0.19190000
H        1.42600000      -0.70650000      -1.69670000
H        2.72880000       0.68290000       0.61030000
H        3.27790000      -2.09550000      -0.01130000
H        2.88100000      -1.97070000       1.74320000
H        0.44030000      -2.66860000       0.31710000
H       -0.66510000      -0.49120000       2.88750000
