21
Properties=species:S:1:pos:R:3 gdb_101956=T pbc="F F F"
O       -0.07070000       1.34370000       0.17480000
C       -0.11470000      -0.06730000       0.20130000
C       -1.55440000      -0.58660000       0.05280000
C       -2.42270000      -0.15380000       1.21750000
C       -3.56350000      -0.98500000       1.67190000
N       -2.34520000      -0.87860000       2.49580000
N       -2.07610000      -0.01890000      -1.19500000
C       -1.83260000      -0.77000000      -2.42450000
C       -3.19900000      -0.68590000      -1.83880000
H       -0.65140000       1.60440000      -0.55280000
H        0.50690000      -0.50560000      -0.59770000
H        0.30240000      -0.38800000       1.16160000
H       -1.53290000      -1.69380000       0.02020000
H       -2.48260000       0.92400000       1.33700000
H       -4.44700000      -0.51720000       2.09670000
H       -3.75620000      -1.92170000       1.15390000
H       -1.78510000      -1.72180000       2.38290000
H       -1.56680000      -0.18130000      -3.29740000
H       -1.31430000      -1.72400000      -2.34320000
H       -3.59310000      -1.58500000      -1.37030000
H       -3.95050000      -0.03530000      -2.27640000
