18
Properties=species:S:1:pos:R:3 gdb_117279=T pbc="F F F"
C       -0.06930000       1.43800000      -0.44950000
C       -0.24480000       0.06920000       0.13450000
N       -0.57390000      -0.15390000       1.32570000
O        0.02400000      -0.87380000      -0.88400000
C       -0.04060000      -2.22200000      -0.70490000
O       -0.32930000      -2.77450000       0.32640000
C        0.30450000      -2.92590000      -1.99470000
C        0.25570000      -4.44210000      -1.86380000
O        0.59630000      -4.97110000      -3.13480000
H        0.95000000       1.56310000      -0.82830000
H       -0.74920000       1.58170000      -1.29520000
H       -0.27210000       2.18350000       0.31810000
H       -0.63800000      -1.15150000       1.51910000
H       -0.38540000      -2.58830000      -2.77630000
H        1.30030000      -2.60280000      -2.31810000
H        0.95700000      -4.76850000      -1.08260000
H       -0.74950000      -4.75360000      -1.54600000
H        0.57160000      -5.93040000      -3.07620000
