14
Properties=species:S:1:pos:R:3 gdb_872=T pbc="F F F"
N        0.16290000       1.40850000      -0.07090000
C       -0.01270000       0.00630000      -0.04530000
C       -1.10800000      -0.81380000      -0.19300000
C       -0.64450000      -2.16400000      -0.14510000
C        0.71710000      -2.12850000       0.05170000
N        1.69890000      -3.12780000       0.23970000
N        1.08930000      -0.80450000       0.10650000
H       -0.58340000       1.84910000      -0.59540000
H        0.15420000       1.81380000       0.86150000
H       -2.12770000      -0.48270000      -0.32130000
H       -1.24180000      -3.05820000      -0.24350000
H        1.27670000      -3.97540000       0.59930000
H        2.16970000      -3.37170000      -0.62790000
H        2.03090000      -0.47660000       0.23860000
