15
Properties=species:S:1:pos:R:3 gdb_74649=T pbc="F F F"
N       -0.05890000       1.33490000       0.12340000
C       -0.06420000      -0.01370000       0.03300000
N       -1.08190000      -0.80720000      -0.00660000
C       -0.40520000      -2.11500000      -0.04430000
C        0.86090000      -2.11170000       0.87000000
O        1.60950000      -2.97150000      -0.06090000
C        0.87250000      -2.04750000      -0.93730000
C        1.20350000      -0.83440000       0.01280000
O        2.41380000      -0.17970000       0.03910000
H        0.80190000       1.82000000      -0.06580000
H       -0.92340000       1.82890000      -0.02940000
H       -1.04060000      -2.99580000      -0.07980000
H        0.97740000      -2.28810000       1.94110000
H        1.00310000      -2.14710000      -2.01690000
H        3.10320000      -0.85690000       0.01310000
