16
Properties=species:S:1:pos:R:3 gdb_14663=T pbc="F F F"
C       -0.03470000       1.55850000      -0.02550000
C        0.00940000       0.01870000       0.01810000
C        0.70730000      -0.49870000       1.18580000
C        1.29060000      -0.91470000       2.16220000
C        1.94510000      -1.38320000       3.25790000
C        2.52680000      -1.80390000       4.23210000
C        3.23220000      -2.27050000       5.41570000
O        3.27260000      -3.69220000       5.42380000
H        0.97540000       1.97550000      -0.04780000
H       -0.56840000       1.89490000      -0.91900000
H       -0.54650000       1.95730000       0.85420000
H       -1.01390000      -0.37890000       0.00300000
H        0.49450000      -0.36100000      -0.89070000
H        4.24830000      -1.84150000       5.41740000
H        2.72190000      -1.87980000       6.31190000
H        3.74690000      -3.95990000       6.21780000
