25
Properties=species:S:1:pos:R:3 gdb_100019=T pbc="F F F"
C       -0.24120000       1.52650000       0.03940000
C       -0.29410000       0.02470000      -0.26180000
C        0.76410000      -0.48660000      -1.27360000
C        0.61060000       0.20480000      -2.63090000
O        2.07960000      -0.10160000      -0.84250000
C        0.67990000      -2.03230000      -1.36220000
C        1.25200000      -2.76960000      -0.15890000
C       -0.51810000      -2.67460000      -2.02420000
C        0.83890000      -2.75410000      -2.68080000
H        0.77440000       1.83430000       0.30350000
H       -0.56010000       2.12990000      -0.81540000
H       -0.90230000       1.77250000       0.87610000
H       -0.16360000      -0.52540000       0.67900000
H       -1.28900000      -0.25090000      -0.62940000
H        0.63790000       1.28810000      -2.50080000
H        1.44140000      -0.06690000      -3.28520000
H       -0.33020000      -0.05760000      -3.12180000
H        2.19230000      -0.39350000       0.06780000
H        0.77050000      -2.47980000       0.78200000
H        1.10910000      -3.84830000      -0.27060000
H        2.32880000      -2.59340000      -0.06310000
H       -0.93240000      -3.56920000      -1.57060000
H       -1.26350000      -2.03660000      -2.48710000
H        0.99450000      -2.18400000      -3.58760000
H        1.36060000      -3.70540000      -2.66770000
