21
Properties=species:S:1:pos:R:3 gdb_51877=T pbc="F F F"
O       -0.52130000       0.63090000       0.82400000
C        0.08200000       0.95060000      -0.16910000
C        1.35770000       1.76620000      -0.16570000
C        1.35930000       2.87000000      -1.22630000
C        2.56830000       3.80630000      -1.11390000
C        2.58040000       4.80850000      -2.27710000
C        2.45520000       4.06970000      -3.61710000
C        1.25580000       3.12200000      -3.58270000
O        1.33730000       2.21640000      -2.49120000
H       -0.27060000       0.65590000      -1.18050000
H        1.50970000       2.17670000       0.83620000
H        2.19190000       1.08720000      -0.39130000
H        0.44000000       3.47660000      -1.12350000
H        2.54270000       4.32720000      -0.15020000
H        3.48200000       3.19810000      -1.13270000
H        1.73620000       5.50270000      -2.16530000
H        3.49080000       5.41610000      -2.25090000
H        2.34460000       4.77600000      -4.44760000
H        3.36270000       3.48310000      -3.80540000
H        0.31910000       3.70240000      -3.51830000
H        1.20540000       2.50420000      -4.48390000
