19
Properties=species:S:1:pos:R:3 gdb_102916=T pbc="F F F"
C       -0.14510000       1.48610000      -0.08040000
C        0.04000000      -0.03260000      -0.11410000
C        0.88000000      -0.50020000      -1.31110000
O        2.16870000       0.07560000      -1.19550000
C        2.91860000       0.01920000      -2.40090000
C        4.22710000       0.62260000      -2.19510000
C        5.31300000       1.11400000      -2.05110000
C        0.97300000      -2.02410000      -1.29520000
O        0.14560000      -2.76050000      -1.76370000
H        0.82210000       1.99220000      -0.04030000
H       -0.67690000       1.83820000      -0.97100000
H       -0.72680000       1.78390000       0.79680000
H        0.53040000      -0.37260000       0.80620000
H       -0.92780000      -0.54220000      -0.17090000
H        0.38910000      -0.19140000      -2.24790000
H        3.04250000      -1.02280000      -2.73980000
H        2.38250000       0.54960000      -3.20520000
H        6.27230000       1.55010000      -1.91870000
H        1.87800000      -2.40330000      -0.76470000
