25
Properties=species:S:1:pos:R:3 gdb_64478=T pbc="F F F"
C        0.40320000       1.52090000       0.26490000
C       -0.13320000       0.09440000       0.03270000
C       -1.66680000       0.13110000       0.18670000
C        0.26910000      -0.33010000      -1.40570000
C       -0.24560000      -1.69820000      -1.88630000
C        0.60670000      -2.89780000      -1.43440000
O        1.20600000      -2.77100000      -0.15920000
C        0.35960000      -2.33710000       0.89270000
C        0.48430000      -0.82690000       1.11180000
H        1.48770000       1.56410000       0.11590000
H       -0.05940000       2.23400000      -0.42660000
H        0.19220000       1.86120000       1.28470000
H       -2.12890000       0.72480000      -0.61000000
H       -2.12000000      -0.86400000       0.16220000
H       -1.94220000       0.58760000       1.14370000
H       -0.10770000       0.44140000      -2.08890000
H        1.36290000      -0.30520000      -1.48980000
H       -1.28600000      -1.83360000      -1.57410000
H       -0.26880000      -1.71530000      -2.98260000
H       -0.00140000      -3.81670000      -1.48480000
H        1.45140000      -3.03120000      -2.11920000
H       -0.68170000      -2.64760000       0.72080000
H        0.69980000      -2.85620000       1.79680000
H        1.55800000      -0.61640000       1.19310000
H        0.04290000      -0.57410000       2.08570000
