21
Properties=species:S:1:pos:R:3 gdb_117486=T pbc="F F F"
C        0.10850000       1.54990000       0.16260000
C        0.04340000       0.02620000       0.16740000
N       -1.29500000      -0.43130000      -0.13750000
C       -1.60590000      -1.75270000      -0.26280000
N       -0.67250000      -2.63010000      -0.22080000
C       -0.84500000      -4.05590000      -0.36360000
C       -3.12950000      -1.91290000      -0.44100000
C       -3.73190000      -3.23630000      -0.84680000
O       -3.83750000      -0.94390000      -0.25970000
H        1.12290000       1.88770000       0.39100000
H       -0.17370000       1.95370000      -0.81500000
H       -0.56290000       1.97940000       0.91480000
H        0.73210000      -0.39640000      -0.57300000
H        0.37140000      -0.37310000       1.13880000
H       -2.08210000       0.18710000      -0.01440000
H        0.12530000      -4.53530000      -0.20030000
H       -1.54220000      -4.49790000       0.36290000
H       -1.18070000      -4.35700000      -1.36650000
H       -3.25260000      -3.63000000      -1.74760000
H       -3.59500000      -3.98510000      -0.06070000
H       -4.79780000      -3.08710000      -1.02370000
