22
Properties=species:S:1:pos:R:3 gdb_89724=T pbc="F F F"
C       -0.00940000       1.59440000      -0.03930000
C        0.01310000       0.06300000       0.01870000
C        0.72340000      -0.60280000      -1.19080000
C        1.48100000      -1.79470000      -0.60120000
C        1.36480000      -3.17000000      -1.16750000
N        2.62370000      -2.41430000      -1.29510000
C        1.58450000      -1.51840000       0.86740000
C        2.47030000      -2.32170000       1.76420000
C        0.77990000      -0.50380000       1.19520000
H        1.00850000       1.99750000      -0.08120000
H       -0.55120000       1.94960000      -0.92270000
H       -0.50070000       2.01630000       0.84410000
H       -1.03010000      -0.28520000       0.06760000
H        0.03570000      -0.88300000      -1.99400000
H        1.44910000       0.10630000      -1.61100000
H        1.42080000      -4.04370000      -0.52350000
H        0.73740000      -3.29910000      -2.04650000
H        2.70280000      -2.02830000      -2.23340000
H        3.49360000      -2.33980000       1.37500000
H        2.48100000      -1.91860000       2.78010000
H        2.14080000      -3.36710000       1.82020000
H        0.64790000      -0.12230000       2.20330000
