15
Properties=species:S:1:pos:R:3 gdb_25028=T pbc="F F F"
O       -0.01990000       0.06020000       0.08370000
C       -0.09030000       1.25750000       0.04840000
N       -1.15580000       2.06870000      -0.28740000
C       -0.78500000       3.41250000      -0.20880000
C        0.49430000       3.42290000       0.20080000
O        0.93940000       2.11780000       0.36200000
N       -1.67250000       4.40990000      -0.59890000
C       -2.67940000       4.87280000       0.37430000
C       -1.52150000       5.73020000       0.00350000
H       -2.02440000       1.71170000      -0.64500000
H        1.20460000       4.20950000       0.37560000
H       -3.66170000       5.06570000      -0.04380000
H       -2.66630000       4.42010000       1.36200000
H       -0.74470000       5.85690000       0.75310000
H       -1.65020000       6.56380000      -0.67870000
