21
Properties=species:S:1:pos:R:3 gdb_52303=T pbc="F F F"
O       -0.09590000      -0.15550000      -0.27850000
C       -0.00680000       1.03760000      -0.14330000
C        1.28750000       1.81560000      -0.10150000
C        1.33560000       2.89490000      -1.19860000
C        2.60370000       3.76440000      -1.16110000
C        2.69730000       4.74900000      -2.36050000
C        3.33730000       6.04480000      -1.80250000
C        3.10550000       5.91970000      -0.31550000
C        2.71720000       4.69400000       0.03060000
H       -0.92130000       1.67070000      -0.04570000
H        1.34960000       2.29400000       0.88630000
H        2.12090000       1.11260000      -0.19270000
H        1.27140000       2.40530000      -2.17870000
H        0.45410000       3.54480000      -1.11660000
H        3.46950000       3.08310000      -1.16730000
H        3.24910000       4.32830000      -3.20490000
H        1.68410000       4.96950000      -2.71540000
H        4.41340000       6.09630000      -2.02070000
H        2.89620000       6.95150000      -2.23160000
H        3.28360000       6.73680000       0.37540000
H        2.53840000       4.36650000       1.04920000
