15
Properties=species:S:1:pos:R:3 gdb_35501=T pbc="F F F"
N       -0.71620000      -1.01080000      -0.71790000
C       -0.41400000       0.05970000      -0.40390000
C       -0.06580000       1.40490000       0.01930000
C       -0.06000000       1.69320000       1.56480000
C        1.36480000       2.27910000       1.44850000
O        2.38110000       1.49300000       2.10380000
C        2.84450000       0.65130000       1.14300000
N        2.41020000       0.73670000      -0.04660000
C        1.44280000       1.83420000      -0.04380000
H       -0.69580000       2.11680000      -0.52080000
H       -0.83500000       2.38400000       1.89960000
H       -0.09190000       0.79340000       2.18030000
H        1.50350000       3.32310000       1.72680000
H        3.59060000      -0.05500000       1.48880000
H        1.67790000       2.56010000      -0.82440000
