20
Properties=species:S:1:pos:R:3 gdb_14124=T pbc="F F F"
C        0.18030000       1.58510000      -0.07530000
C        0.02330000       0.05590000      -0.01180000
C        0.50630000      -0.60220000      -1.31100000
C        0.69950000      -0.49650000       1.22100000
C        2.16320000      -0.88870000       1.34740000
C        1.09200000      -1.88570000       1.67390000
O        0.60770000      -1.68890000       3.00380000
C        0.13900000      -0.36240000       2.64030000
H        1.23570000       1.86220000      -0.17380000
H       -0.35980000       1.99970000      -0.93280000
H       -0.20810000       2.06620000       0.82850000
H       -1.04940000      -0.16520000       0.08930000
H        1.55430000      -0.35970000      -1.51760000
H        0.41140000      -1.69220000      -1.26910000
H       -0.08480000      -0.24700000      -2.16070000
H        2.67930000      -1.05210000       0.40670000
H        2.78240000      -0.49320000       2.14880000
H        0.98780000      -2.87170000       1.23460000
H        0.55440000       0.41880000       3.28850000
H       -0.95710000      -0.32220000       2.66920000
