16
Properties=species:S:1:pos:R:3 gdb_131549=T pbc="F F F"
O        0.10710000       1.43480000      -0.17170000
C        0.03610000       0.02300000      -0.02900000
C        0.53910000      -0.47150000       1.38050000
N       -0.35490000      -1.58550000       1.77730000
C       -1.53290000      -1.38060000       1.05960000
N       -2.74420000      -1.89940000       1.14970000
N       -3.37990000      -1.31340000       0.08470000
C       -2.59310000      -0.46530000      -0.63190000
C       -1.36850000      -0.48110000      -0.00870000
H        1.02490000       1.66880000      -0.34360000
H        0.62370000      -0.45690000      -0.82730000
H        1.58160000      -0.80290000       1.36280000
H        0.45280000       0.38850000       2.05920000
H       -0.46030000      -1.72080000       2.77400000
H       -4.35490000      -1.50930000      -0.05690000
H       -2.97630000       0.07020000      -1.48610000
