18
Properties=species:S:1:pos:R:3 gdb_18556=T pbc="F F F"
O        0.13350000       0.04470000      -0.59250000
C        0.04220000       1.15670000      -0.15750000
C       -1.11530000       1.98180000       0.42660000
C       -0.10430000       3.14150000       0.69530000
C        0.30820000       3.35360000       2.16200000
C        1.29930000       2.21210000       2.46910000
C        2.09570000       2.04310000       1.16020000
C        1.05730000       2.29580000       0.04900000
H       -1.89230000       2.20680000      -0.31100000
H       -1.59840000       1.53660000       1.30310000
H       -0.36480000       4.07190000       0.18990000
H        0.82000000       4.31850000       2.25900000
H       -0.54770000       3.37310000       2.84410000
H        1.93840000       2.42600000       3.32990000
H        0.75570000       1.28740000       2.69820000
H        2.88550000       2.80020000       1.09700000
H        2.57070000       1.06260000       1.06560000
H        1.50000000       2.65450000      -0.88370000
