18
Properties=species:S:1:pos:R:3 gdb_50624=T pbc="F F F"
O       -0.12770000      -0.09100000       0.30920000
C       -0.06670000       1.11080000       0.19760000
N        1.08000000       1.82790000      -0.09440000
C        1.03280000       3.28410000      -0.11060000
C        1.49680000       3.92700000      -1.43310000
C        2.98340000       3.89110000      -1.64010000
C        3.79770000       2.88330000      -1.28910000
C        3.45510000       1.60230000      -0.69400000
C        2.28090000       1.13510000      -0.22810000
H       -0.94130000       1.77620000       0.32140000
H       -0.00380000       3.56920000       0.09070000
H        1.64650000       3.67040000       0.71030000
H        0.97020000       3.43910000      -2.26400000
H        1.15770000       4.96970000      -1.43310000
H        3.42810000       4.77200000      -2.09480000
H        4.85720000       3.00630000      -1.50130000
H        4.27000000       0.88640000      -0.64450000
H        2.18890000       0.10790000       0.10270000
