19
Properties=species:S:1:pos:R:3 gdb_98624=T pbc="F F F"
C       -0.14920000       1.39690000       0.08740000
N        0.34780000       0.04630000      -0.06630000
C        0.67580000      -0.73630000       1.00140000
O        0.52490000      -0.41100000       2.16420000
N        1.25940000      -1.96560000       0.57060000
C        0.31040000      -3.10060000       0.41210000
C        1.10550000      -4.24490000      -0.22390000
C        2.09030000      -4.17860000       1.00060000
C        1.24310000      -3.03600000       1.57510000
H        0.60840000       2.14660000      -0.17340000
H       -1.03290000       1.56260000      -0.53800000
H       -0.42090000       1.52920000       1.13530000
H        0.66140000      -0.26850000      -0.96930000
H       -0.75290000      -2.89850000       0.36290000
H        0.54590000      -5.18240000      -0.25730000
H        1.52620000      -4.03560000      -1.21030000
H        2.05240000      -5.08340000       1.61050000
H        3.13050000      -3.92580000       0.78390000
H        1.04700000      -2.76880000       2.60400000
