18
Properties=species:S:1:pos:R:3 gdb_80129=T pbc="F F F"
C       -0.48490000       1.50860000       0.13130000
C       -0.09790000       0.04160000       0.00470000
C        0.74150000      -0.44380000      -1.22510000
C        1.57420000       0.52610000      -2.02360000
C        2.87110000       0.38670000      -1.74100000
C        3.11260000      -0.67660000      -0.68410000
N        1.74390000      -1.01950000      -0.27920000
C        1.13900000      -0.39440000       0.82200000
O        1.54030000      -0.20660000       1.93720000
H        0.36350000       2.16400000      -0.08580000
H       -1.29990000       1.76360000      -0.55350000
H       -0.81800000       1.71890000       1.15170000
H       -0.96290000      -0.60380000       0.18620000
H        0.23820000      -1.18260000      -1.85980000
H        1.15890000       1.19350000      -2.76870000
H        3.68310000       0.92700000      -2.21340000
H        3.65340000      -1.54220000      -1.08880000
H        3.67020000      -0.31460000       0.18650000
