16
Properties=species:S:1:pos:R:3 gdb_7116=T pbc="F F F"
C        0.64930000       1.33330000       0.86910000
C        0.21690000       0.12600000       0.05950000
O       -1.15070000      -0.15730000       0.40440000
C       -1.70950000      -1.20990000      -0.22460000
N       -1.11120000      -1.93090000      -1.06970000
N       -3.03410000      -1.32010000       0.24430000
C       -3.95190000      -2.26160000      -0.14170000
O       -3.76410000      -3.14490000      -0.94710000
H        1.68840000       1.58130000       0.63400000
H        0.02760000       2.20330000       0.63880000
H        0.57800000       1.13250000       1.94190000
H        0.27940000       0.30650000      -1.01810000
H        0.82610000      -0.75710000       0.27620000
H       -1.73020000      -2.66360000      -1.41040000
H       -3.31310000      -0.63190000       0.92770000
H       -4.91620000      -2.12000000       0.38170000
