20
Properties=species:S:1:pos:R:3 gdb_13407=T pbc="F F F"
C       -0.09650000       1.54720000       0.06340000
C       -0.00110000       0.02220000      -0.02550000
C        0.63650000      -0.45560000      -1.33410000
C        0.73390000      -1.96550000      -1.42450000
O       -0.55860000      -2.55630000      -1.40870000
C       -0.52760000      -3.69900000      -2.25740000
C        0.89750000      -3.68700000      -2.85070000
O        1.32620000      -2.35210000      -2.64300000
H        0.89400000       2.01240000       0.00540000
H       -0.69970000       1.95400000      -0.75570000
H       -0.55780000       1.86230000       1.00450000
H        0.58170000      -0.35900000       0.82360000
H       -0.99880000      -0.42110000       0.06380000
H        0.05530000      -0.10840000      -2.19600000
H        1.64930000      -0.04750000      -1.43710000
H        1.32400000      -2.37530000      -0.58020000
H       -0.72970000      -4.61290000      -1.68550000
H       -1.30040000      -3.59000000      -3.02720000
H        1.55260000      -4.39570000      -2.32170000
H        0.93310000      -3.90340000      -3.92050000
