17
Properties=species:S:1:pos:R:3 gdb_107373=T pbc="F F F"
O        0.12200000       1.38670000       0.36920000
C        0.08580000       0.02500000      -0.01310000
C       -1.31030000      -0.52700000      -0.04960000
C       -2.08320000      -0.98000000       1.15190000
C       -1.71890000      -1.97310000       0.05980000
C       -2.73390000      -2.19490000      -1.03810000
C       -2.94180000      -0.80890000      -1.66130000
O       -3.70550000      -0.48920000      -2.52100000
O       -2.09390000       0.08910000      -1.06770000
H       -0.41310000       1.87430000      -0.26690000
H        0.55910000      -0.13050000      -0.99530000
H        0.67030000      -0.52550000       0.73070000
H       -1.54440000      -1.05610000       2.08980000
H       -3.11600000      -0.65870000       1.24410000
H       -0.98830000      -2.74360000       0.27500000
H       -2.36800000      -2.87220000      -1.81630000
H       -3.69980000      -2.58180000      -0.70100000
