12
Properties=species:S:1:pos:R:3 gdb_123502=T pbc="F F F"
C        0.01040000       1.32720000       0.00980000
C        1.31180000       1.80120000      -0.00040000
N        1.91010000       3.00740000       0.00040000
C        3.21950000       2.98160000      -0.01280000
C        3.96210000       1.75970000      -0.02710000
N        3.40160000       0.57680000      -0.02820000
N        2.06850000       0.62630000      -0.01460000
N        1.28950000      -0.46160000      -0.01270000
N        0.04570000      -0.02070000       0.00210000
H       -0.91390000       1.88030000       0.02200000
H        3.74560000       3.93190000      -0.01270000
H        5.04650000       1.76440000      -0.03790000
