15
Properties=species:S:1:pos:R:3 gdb_133590=T pbc="F F F"
F        0.12840000       0.08950000      -0.18390000
C        0.00900000       1.40750000      -0.01180000
F        1.24770000       1.93440000      -0.03240000
F       -0.64780000       1.89050000      -1.08560000
C       -0.71130000       1.79040000       1.26290000
C       -2.00430000       1.00590000       1.68380000
C       -1.33350000       0.73580000       3.03860000
N       -0.11940000      -0.05400000       2.73900000
C       -0.08230000       1.42240000       2.61220000
H       -0.90490000       2.86360000       1.20420000
H       -2.88080000       1.65280000       1.73610000
H       -2.23220000       0.11120000       1.10220000
H       -1.80330000       0.69360000       4.01260000
H        0.32420000      -0.27830000       3.62940000
H        0.62610000       2.01450000       3.17700000
