16
Properties=species:S:1:pos:R:3 gdb_53740=T pbc="F F F"
N        0.06870000       0.93250000       0.07980000
H       -0.59810000       0.62410000      -0.62220000
H        0.66270000       0.13920000       0.29600000
H       -1.55370000       5.16270000      -0.78040000
C       -0.62670000       1.37950000       1.26900000
C       -1.33300000       0.39500000       2.21050000
C       -0.03310000       1.02410000       2.61990000
C       -1.22660000       2.67780000       1.13850000
C       -1.75580000       3.75860000       1.03420000
C       -2.38620000       5.05470000       0.93270000
O       -3.07650000       5.54900000       1.78140000
O       -2.13770000       5.70390000      -0.23330000
H       -2.24140000       0.71940000       2.70430000
H       -1.32410000      -0.64300000       1.89600000
H        0.86700000       0.41810000       2.59980000
H       -0.04410000       1.78460000       3.39070000
