18
Properties=species:S:1:pos:R:3 gdb_62853=T pbc="F F F"
C       -0.16380000       1.61810000       0.05970000
C        0.00880000       0.10840000       0.00730000
O       -1.25350000      -0.53700000       0.04800000
C        0.85850000      -0.61440000      -1.08340000
C        2.23180000       0.06860000      -1.03020000
C        2.35870000       0.09090000       0.51040000
O        3.21270000       0.57790000       1.19780000
C        1.07340000      -0.62760000       0.91400000
N        1.11050000      -1.74980000      -0.10990000
H        0.78820000       2.15360000       0.04150000
H       -0.77530000       1.95710000      -0.78200000
H       -0.67630000       1.90680000       0.98580000
H       -1.72250000      -0.23000000       0.83150000
H        0.42950000      -0.86140000      -2.05420000
H        3.00710000      -0.55570000      -1.48040000
H        2.28390000       1.07090000      -1.46100000
H        0.92040000      -0.86040000       1.96680000
H        0.22040000      -2.23690000      -0.00860000
