21
Properties=species:S:1:pos:R:3 gdb_82469=T pbc="F F F"
C       -0.05540000       1.52810000       0.02740000
C        0.09900000       0.00830000       0.03150000
C        1.06450000      -0.62150000      -1.00510000
C        2.43840000       0.01290000      -0.64560000
C        2.26900000      -0.82390000       0.62660000
O        3.25750000      -1.05580000       1.57390000
C        1.49810000      -1.92270000      -0.19350000
C        0.56370000      -2.13360000       1.00670000
C        0.81950000      -0.62190000       1.24890000
H        0.87230000       2.04980000       0.27610000
H       -0.39100000       1.88810000      -0.95180000
H       -0.80470000       1.83290000       0.76590000
H       -0.90010000      -0.43130000      -0.07300000
H        0.73600000      -0.68600000      -2.04150000
H        3.24060000      -0.40380000      -1.26600000
H        2.54270000       1.09980000      -0.60200000
H        4.04850000      -1.36120000       1.11700000
H        1.99310000      -2.72170000      -0.74660000
H       -0.46970000      -2.46020000       0.85490000
H        1.04870000      -2.76260000       1.75730000
H        0.69350000      -0.16130000       2.22880000
