21
Properties=species:S:1:pos:R:3 gdb_111242=T pbc="F F F"
C       -0.03970000       1.31050000       0.21530000
O       -0.08330000      -0.01430000      -0.27060000
C       -1.34700000      -0.61740000      -0.13480000
C       -1.29120000      -2.08770000      -0.62030000
C       -0.82200000      -2.46630000       0.81820000
C       -1.64000000      -1.22700000       1.27480000
O       -3.03420000      -1.48480000       1.37910000
C       -3.48780000      -2.52900000       0.51780000
C       -2.73710000      -2.56860000      -0.83160000
H        0.97170000       1.68520000       0.04110000
H       -0.75580000       1.95680000      -0.31520000
H       -0.25800000       1.36910000       1.29140000
H       -2.14220000       0.02460000      -0.54360000
H       -0.63870000      -2.30120000      -1.46940000
H       -1.08010000      -3.44580000       1.22620000
H        0.24450000      -2.28100000       0.94680000
H       -1.34590000      -0.68020000       2.17320000
H       -3.37110000      -3.49580000       1.02740000
H       -4.56000000      -2.36540000       0.37900000
H       -3.22970000      -1.93180000      -1.57560000
H       -2.75630000      -3.59380000      -1.21840000
