16
Properties=species:S:1:pos:R:3 gdb_57087=T pbc="F F F"
O       -0.19740000       1.31620000       0.06410000
C        0.03730000      -0.09040000       0.01240000
C        0.69720000      -0.48290000      -1.23040000
C        1.27790000      -0.74370000      -2.24960000
C        0.83560000      -0.54300000       1.25920000
C        0.15630000      -0.09600000       2.58050000
O       -0.13430000      -1.34350000       3.26270000
C        0.33730000      -2.31250000       2.44830000
N        0.89330000      -2.01150000       1.34920000
H        0.58680000       1.75380000      -0.28540000
H       -0.95530000      -0.55460000       0.06450000
H        1.77710000      -0.99750000      -3.15230000
H        1.85200000      -0.14410000       1.16670000
H        0.80560000       0.49970000       3.22590000
H       -0.78000000       0.44310000       2.42080000
H        0.19360000      -3.32040000       2.82240000
