18
Properties=species:S:1:pos:R:3 gdb_74636=T pbc="F F F"
C       -0.04690000       1.50320000       0.01110000
C        0.01790000       0.01640000      -0.03980000
C       -0.05560000      -0.84760000      -1.05870000
C        0.05780000      -2.19300000      -0.39230000
N       -0.81360000      -2.08570000       0.89100000
C        0.18090000      -3.00180000       1.59860000
C        1.10640000      -2.08580000       0.78520000
O        2.48420000      -2.00320000       0.75160000
C        0.16790000      -0.90410000       1.15720000
H        0.85870000       1.92650000       0.46370000
H       -0.15770000       1.93120000      -0.98890000
H       -0.89170000       1.84430000       0.62270000
H       -0.18060000      -0.65680000      -2.11510000
H       -0.06420000      -3.11670000      -0.95970000
H        0.17650000      -2.89620000       2.68700000
H        0.09370000      -4.05110000       1.30060000
H        2.84500000      -2.88290000       0.59480000
H        0.15070000      -0.50280000       2.17190000
