20
Properties=species:S:1:pos:R:3 gdb_82115=T pbc="F F F"
C       -0.32180000       1.55280000       0.13280000
C       -0.04320000       0.05550000       0.05650000
C        0.45900000      -0.53750000      -1.27070000
C        1.83610000      -0.04210000      -1.60420000
C        1.68810000      -1.13040000      -0.57590000
C        1.21940000      -0.57390000       0.77200000
C        2.20880000       0.31460000       1.54680000
C        1.65010000       0.82290000       2.79850000
N        1.18700000       1.20940000       3.78460000
H        0.51700000       2.15400000      -0.23230000
H       -1.19230000       1.80520000      -0.48220000
H       -0.53580000       1.86470000       1.15970000
H       -0.93160000      -0.48470000       0.39550000
H       -0.17340000      -0.99770000      -2.02030000
H        2.22540000      -0.37410000      -2.56130000
H        2.15710000       0.96000000      -1.33190000
H        2.14110000      -2.10500000      -0.71320000
H        0.89780000      -1.38080000       1.43500000
H        3.10950000      -0.26530000       1.78190000
H        2.53610000       1.16550000       0.94110000
