19
Properties=species:S:1:pos:R:3 gdb_30737=T pbc="F F F"
C        0.04610000       1.19860000       0.56120000
N       -0.03340000       0.04840000      -0.34610000
C       -1.17650000      -0.73790000      -0.24630000
C       -1.31080000      -2.06990000       0.01450000
N       -0.27520000      -3.00070000       0.17990000
C       -2.72110000      -2.36510000      -0.01270000
C       -3.35760000      -3.70030000       0.20710000
C       -3.32800000      -1.17950000      -0.29110000
O       -2.42920000      -0.17880000      -0.44870000
H        1.00930000       1.69860000       0.42080000
H       -0.75590000       1.93540000       0.41300000
H       -0.00750000       0.84180000       1.59390000
H        0.15760000       0.33530000      -1.30110000
H        0.61340000      -2.52550000       0.29290000
H       -0.42770000      -3.62360000       0.96420000
H       -3.19020000      -4.07360000       1.22580000
H       -4.43900000      -3.65220000       0.05160000
H       -2.95020000      -4.45230000      -0.47860000
H       -4.36610000      -0.90760000      -0.40210000
