19
Properties=species:S:1:pos:R:3 gdb_36723=T pbc="F F F"
N       -0.01850000      -1.17050000       0.22850000
C       -0.01330000      -0.02530000       0.07830000
C       -0.01330000       1.43090000      -0.08290000
N        1.33060000       1.97570000       0.07770000
C        1.36480000       3.44530000       0.04490000
C        2.74610000       3.97260000       0.50290000
C        3.05710000       5.18910000      -0.40360000
C        2.14110000       4.96980000      -1.58320000
C        1.23280000       4.02620000      -1.34850000
H       -0.37880000       1.66060000      -1.09070000
H       -0.75670000       1.85120000       0.62070000
H        1.70680000       1.65720000       0.96570000
H        0.56140000       3.86190000       0.68650000
H        2.77370000       4.21270000       1.56870000
H        3.47860000       3.18060000       0.31560000
H        2.82560000       6.13960000       0.09640000
H        4.11400000       5.24230000      -0.68700000
H        2.21410000       5.55200000      -2.49550000
H        0.45140000       3.72770000      -2.03840000
