15
Properties=species:S:1:pos:R:3 gdb_26708=T pbc="F F F"
N        0.19890000       1.44140000       0.03930000
C        0.01780000       0.04400000      -0.01690000
C       -1.08140000      -0.77930000      -0.03920000
O       -2.38680000      -0.37670000      -0.01430000
C       -0.62560000      -2.13100000      -0.10930000
O       -1.41810000      -3.26780000      -0.08600000
C        0.75020000      -2.09390000      -0.10710000
O        1.67360000      -3.08770000      -0.13780000
N        1.13900000      -0.79420000      -0.06380000
H       -0.22400000       1.84280000       0.87040000
H       -0.21560000       1.91140000      -0.75950000
H       -2.91610000      -1.16300000       0.16200000
H       -1.68360000      -3.47800000      -0.98910000
H        1.19490000      -3.91520000      -0.01230000
H        2.08690000      -0.46250000      -0.02860000
