20
Properties=species:S:1:pos:R:3 gdb_6849=T pbc="F F F"
C        0.00240000       1.55270000       0.02950000
C       -0.00710000       0.02080000       0.01010000
O       -1.35940000      -0.45050000      -0.05330000
C        0.66380000      -0.52810000      -1.25710000
C        0.59940000      -2.06020000      -1.31360000
C        0.99490000      -2.68780000      -0.00470000
C        1.03910000      -2.01250000       1.14190000
C        0.69970000      -0.54940000       1.25840000
H        1.02120000       1.94990000      -0.02650000
H       -0.57130000       1.94190000      -0.81660000
H       -0.45210000       1.93290000       0.95280000
H       -1.80340000      -0.18590000       0.75900000
H        0.17990000      -0.09290000      -2.13790000
H        1.70980000      -0.19970000      -1.26300000
H       -0.41990000      -2.37490000      -1.57260000
H        1.24540000      -2.43090000      -2.11910000
H        1.23870000      -3.74760000      -0.01550000
H        1.33580000      -2.51720000       2.05850000
H        1.61230000       0.03000000       1.46150000
H        0.05570000      -0.38020000       2.13450000
