18
Properties=species:S:1:pos:R:3 gdb_53032=T pbc="F F F"
C       -0.02010000       1.42340000      -0.04660000
C       -0.00890000      -0.03010000       0.00820000
C       -0.00310000      -1.23500000       0.04550000
C        0.02760000      -2.65620000       0.11850000
C        1.19000000      -3.54020000       0.55830000
C        0.44290000      -4.64940000      -0.19900000
C       -0.86240000      -4.90320000       0.58030000
C       -1.21750000      -3.50510000       0.11370000
N       -0.29240000      -3.56910000      -1.06360000
H        0.90810000       1.84130000       0.35850000
H       -0.11890000       1.77820000      -1.07860000
H       -0.85270000       1.84140000       0.53020000
H        2.10610000      -3.24380000       0.04270000
H        1.38560000      -3.67210000       1.62760000
H        0.97710000      -5.45350000      -0.69970000
H       -1.48890000      -5.64620000       0.08020000
H       -0.80170000      -5.12350000       1.65110000
H       -2.19570000      -3.04510000       0.03210000
