18
Properties=species:S:1:pos:R:3 gdb_116674=T pbc="F F F"
C        0.26420000       1.07790000      -0.34970000
O       -0.26760000      -0.10090000       0.25020000
C        0.58480000      -0.80220000       1.01050000
N        0.21420000      -1.88640000       1.53920000
C        1.17530000      -2.64260000       2.30950000
C        0.42260000      -3.77490000       3.02120000
O       -0.27510000      -4.55550000       2.07750000
C        2.29030000      -3.22590000       1.43000000
O        2.61480000      -2.78630000       0.36040000
H        1.05070000       0.83300000      -1.07220000
H       -0.56590000       1.55740000      -0.86880000
H        0.66240000       1.76630000       0.40510000
H        1.57510000      -0.34500000       1.13200000
H        1.70020000      -2.03270000       3.06870000
H        1.12570000      -4.43690000       3.53980000
H       -0.24890000      -3.33830000       3.77560000
H       -0.75170000      -3.91680000       1.52790000
H        2.81820000      -4.09160000       1.88800000
