23
Properties=species:S:1:pos:R:3 gdb_38750=T pbc="F F F"
C       -0.01760000       1.55780000      -0.16110000
C        1.52800000       1.56380000      -0.03050000
C        2.05980000       1.79660000       1.39900000
C        1.91990000       0.43260000       2.11810000
C        2.32630000      -0.55240000       1.00130000
C        1.53240000       0.00110000      -0.18580000
C       -0.02210000       0.01600000       0.03960000
C       -0.41190000      -0.46020000       1.44280000
C        0.46190000       0.15090000       2.56580000
H       -0.57660000       2.15460000       0.56810000
H       -0.35030000       1.84550000      -1.16220000
H        2.06460000       2.15830000      -0.77300000
H        3.12020000       2.07110000       1.35430000
H        1.53800000       2.60650000       1.92100000
H        2.58240000       0.38260000       2.98740000
H        3.40350000      -0.49530000       0.80400000
H        2.09070000      -1.59600000       1.23630000
H        1.83610000      -0.38740000      -1.15950000
H       -0.60110000      -0.53520000      -0.70710000
H       -1.47040000      -0.24470000       1.63080000
H       -0.31880000      -1.55290000       1.47030000
H        0.46480000      -0.53640000       3.41910000
H        0.01530000       1.08260000       2.93230000
