17
Properties=species:S:1:pos:R:3 gdb_99237=T pbc="F F F"
C        0.56590000       0.13920000      -0.23350000
O       -0.72480000       0.59510000       0.17180000
C       -1.69470000      -0.33150000       0.25990000
N       -2.89240000       0.26080000       0.56670000
H       -3.60430000      -0.32080000       0.97610000
H       -2.84000000       1.20200000       0.92310000
N       -1.47770000      -1.56900000       0.03600000
C       -2.57470000      -2.51070000       0.12290000
C       -2.09120000      -3.92430000      -0.23710000
O       -0.79300000      -3.97860000      -0.55580000
O       -2.81580000      -4.88230000      -0.23020000
H        1.19470000       1.02970000      -0.25650000
H        0.96370000      -0.58770000       0.47970000
H        0.52220000      -0.32020000      -1.22460000
H       -0.47510000      -3.05330000      -0.46810000
H       -3.00810000      -2.57720000       1.13330000
H       -3.40200000      -2.26870000      -0.56010000
