21
Properties=species:S:1:pos:R:3 gdb_126522=T pbc="F F F"
C       -0.01490000       1.60350000       0.19320000
C        0.00760000       0.07530000       0.12240000
C       -1.39220000      -0.53090000      -0.10610000
C       -1.39220000      -2.02490000      -0.19080000
C       -1.39250000      -2.89130000      -1.26630000
C       -1.34500000      -4.19320000      -0.70910000
C       -1.32870000      -5.51040000      -1.41940000
N       -1.31800000      -4.14220000       0.62110000
N       -1.34440000      -2.82240000       0.90880000
H        0.98900000       2.00800000       0.35320000
H       -0.40510000       2.03720000      -0.73430000
H       -0.65050000       1.95500000       1.01380000
H        0.67020000      -0.25480000      -0.68600000
H        0.43130000      -0.33470000       1.04760000
H       -2.06320000      -0.20230000       0.69940000
H       -1.81210000      -0.12970000      -1.03480000
H       -1.42680000      -2.61890000      -2.30970000
H       -0.45530000      -5.60240000      -2.07470000
H       -1.29980000      -6.32420000      -0.69180000
H       -2.21800000      -5.63920000      -2.04630000
H       -1.34340000      -2.53580000       1.87300000
