15
Properties=species:S:1:pos:R:3 gdb_66735=T pbc="F F F"
O       -0.11200000       1.35760000       0.08830000
C        0.03680000       0.00280000       0.04220000
C        0.95520000      -1.00590000       0.82560000
C        0.79250000      -1.99550000      -0.31770000
C       -0.18170000      -2.01910000       0.84990000
C       -1.10700000      -1.02540000       0.11650000
C       -2.54250000      -0.81030000       0.07010000
O       -3.35600000      -1.45730000       0.69310000
C       -0.10020000      -0.97870000      -1.08520000
H        0.56000000       1.76320000      -0.47270000
H        1.77530000      -0.87090000       1.51690000
H        1.47770000      -2.75270000      -0.67310000
H       -0.39900000      -2.79620000       1.56880000
H       -2.85150000       0.02250000      -0.60150000
H       -0.35730000      -0.84370000      -2.12760000
