23
Properties=species:S:1:pos:R:3 gdb_73679=T pbc="F F F"
C        0.03360000       1.50530000      -0.00510000
C       -0.03230000      -0.02700000      -0.01740000
C       -1.48890000      -0.55350000       0.06100000
C       -1.68560000      -0.97240000       1.53000000
C       -0.32330000      -1.57560000       1.91010000
C        0.70020000      -0.64420000       1.23170000
C        1.96550000      -1.29610000       0.63420000
O        2.12630000      -0.73740000      -0.66410000
C        0.81360000      -0.59000000      -1.18180000
H        1.07510000       1.84340000      -0.00450000
H       -0.46110000       1.93030000      -0.88580000
H       -0.45520000       1.91770000       0.88450000
H       -2.22040000       0.19020000      -0.26930000
H       -1.61020000      -1.43020000      -0.58710000
H       -1.89020000      -0.09000000       2.14930000
H       -2.52090000      -1.66510000       1.67230000
H       -0.17560000      -1.66070000       2.99080000
H       -0.24090000      -2.58830000       1.49390000
H        0.98350000       0.15810000       1.91990000
H        2.88110000      -1.09490000       1.19640000
H        1.83770000      -2.38990000       0.56540000
H        0.41770000      -1.56560000      -1.51350000
H        0.87050000       0.07230000      -2.05050000
