19
Properties=species:S:1:pos:R:3 gdb_71153=T pbc="F F F"
C        0.01540000       1.55790000      -0.00600000
C        0.03690000       0.05690000       0.06580000
C       -1.25270000      -0.80210000       0.23250000
C       -0.34550000      -1.86520000       0.85290000
C        0.98040000      -1.85410000       0.07360000
C        0.71780000      -0.85690000       1.18760000
C        0.84530000      -0.76580000      -0.95640000
C        0.91240000      -0.72060000      -2.41440000
O        1.98400000      -0.20940000      -1.58930000
H        1.02650000       1.95390000      -0.14060000
H       -0.59150000       1.89680000      -0.85420000
H       -0.41320000       1.99400000       0.90210000
H       -1.92950000      -0.37370000       0.97800000
H       -1.81230000      -1.04430000      -0.67920000
H       -0.63390000      -2.73870000       1.42410000
H        1.65710000      -2.69800000       0.07540000
H        1.26910000      -0.63730000       2.08970000
H        1.15460000      -1.61970000      -2.97980000
H        0.35670000       0.03580000      -2.96810000
