16
Properties=species:S:1:pos:R:3 gdb_46155=T pbc="F F F"
O       -0.02120000      -0.07090000       0.07730000
C       -0.00790000       1.14350000       0.02860000
C       -1.30740000       1.94830000       0.00270000
O       -1.17240000       3.31040000      -0.36500000
C       -0.11730000       3.93930000       0.35020000
C        1.21730000       3.32490000      -0.09440000
N        1.14040000       1.88010000       0.05030000
C       -0.15290000       5.37520000       0.10290000
C       -0.14210000       6.55990000      -0.09010000
H       -1.97690000       1.48440000      -0.72400000
H       -1.77140000       1.85040000       0.99790000
H       -0.24480000       3.75490000       1.43130000
H        1.40960000       3.62060000      -1.13380000
H        2.02980000       3.71530000       0.52710000
H        1.99210000       1.33750000       0.02890000
H       -0.14880000       7.60860000      -0.25990000
