14
Properties=species:S:1:pos:R:3 gdb_34775=T pbc="F F F"
C       -0.18400000      -1.22710000      -0.20280000
C       -0.06260000      -0.04170000      -0.05240000
C        0.05510000       1.39470000       0.08190000
O       -0.11550000       1.91910000       1.44490000
C        1.07030000       2.68480000       1.30970000
C        2.29090000       1.80290000       1.18540000
C        2.41780000       0.52980000       1.84270000
N        2.56400000      -0.47460000       2.39610000
C        1.41600000       2.09460000      -0.03040000
H       -0.26720000      -2.28070000      -0.31210000
H       -0.67350000       1.89760000      -0.56510000
H        1.08610000       3.69040000       1.71190000
H        3.22050000       2.36570000       1.14920000
H        1.82600000       2.52590000      -0.93260000
