17
Properties=species:S:1:pos:R:3 gdb_3156=T pbc="F F F"
C       -0.52400000       1.36570000       0.00430000
C        0.09360000      -0.02320000      -0.02070000
C        1.44490000      -0.25370000      -0.76940000
C        1.91960000      -1.17460000       0.39450000
C        0.78740000      -0.57820000       1.23180000
C        0.85430000       0.00050000       2.57520000
O        0.13860000      -1.21720000       2.31340000
H        0.20250000       2.11550000       0.33660000
H       -0.87470000       1.65880000      -0.99110000
H       -1.38390000       1.40490000       0.68210000
H       -0.64510000      -0.75920000      -0.36040000
H        1.38970000      -0.69950000      -1.76400000
H        2.03280000       0.66670000      -0.82840000
H        1.74160000      -2.23360000       0.18500000
H        2.94190000      -1.05320000       0.75990000
H        1.76270000      -0.11050000       3.16690000
H        0.23380000       0.85700000       2.83570000
