16
Properties=species:S:1:pos:R:3 gdb_10927=T pbc="F F F"
O        0.11870000       1.41990000      -0.00680000
C        0.01570000       0.00050000       0.00000000
C       -1.36420000      -0.62930000       0.04610000
C       -2.16770000      -0.20710000      -1.17840000
C       -1.13540000      -1.25260000      -1.36010000
O       -1.49760000      -2.48230000      -1.86260000
C        0.26890000      -0.63840000      -1.41720000
O        0.56560000       0.27260000      -2.43670000
H       -0.77350000       1.78170000      -0.00530000
H        0.70000000      -0.37650000       0.76410000
H       -1.84840000      -1.03780000       0.92450000
H       -3.18380000      -0.58710000      -1.18350000
H       -2.05310000       0.77190000      -1.63750000
H       -0.81760000      -3.12130000      -1.62140000
H        1.03970000      -1.42150000      -1.37470000
H        0.60480000       1.13500000      -1.99510000
