22
Properties=species:S:1:pos:R:3 gdb_12562=T pbc="F F F"
C        0.46280000       1.66960000      -0.02610000
C        0.00300000       0.20570000      -0.00550000
C        0.46270000      -0.53150000      -1.28070000
C       -0.20930000      -1.90060000      -1.48120000
C        0.44940000      -3.06000000      -0.71390000
O        1.00030000      -2.71960000       0.54410000
C        0.16660000      -1.97020000       1.41250000
C        0.45340000      -0.47120000       1.30110000
H        1.55720000       1.73620000      -0.04550000
H        0.08240000       2.19420000      -0.90890000
H        0.11520000       2.20980000       0.86100000
H       -1.09810000       0.20200000      -0.01780000
H        0.22200000       0.10430000      -2.14110000
H        1.55500000      -0.64220000      -1.27410000
H       -1.26750000      -1.81570000      -1.20410000
H       -0.20380000      -2.17260000      -2.54360000
H       -0.27530000      -3.88480000      -0.60640000
H        1.29880000      -3.44860000      -1.28640000
H       -0.89710000      -2.18980000       1.23400000
H        0.39780000      -2.30780000       2.42990000
H        1.53720000      -0.34190000       1.42270000
H       -0.01950000       0.04190000       2.14940000
