15
Properties=species:S:1:pos:R:3 gdb_77063=T pbc="F F F"
O        0.09700000       1.46520000       0.09210000
C        0.08460000       0.06320000       0.04620000
C       -1.33350000      -0.59620000       0.12480000
C       -2.50670000       0.39450000       0.13360000
C       -3.76490000      -0.27430000      -0.18590000
N       -4.73800000      -0.83750000      -0.45350000
N       -1.03920000      -1.20010000      -1.17900000
C        0.16410000      -0.56960000      -1.36930000
O        0.94020000      -0.50080000      -2.28350000
H        0.72770000       1.77120000      -0.57040000
H        0.79440000      -0.37690000       0.75800000
H       -1.45160000      -1.33170000       0.92590000
H       -2.58260000       0.86380000       1.12030000
H       -2.32010000       1.19450000      -0.58770000
H       -1.59720000      -1.79210000      -1.77880000
