21
Properties=species:S:1:pos:R:3 gdb_114233=T pbc="F F F"
C       -0.34670000       1.43870000       0.55100000
C       -0.20900000      -0.05740000       0.44670000
O        0.93590000      -0.55340000      -0.27030000
C        0.85070000      -0.81780000       1.11930000
C        1.87120000      -0.34810000       2.16220000
C        1.55920000      -1.64670000       2.97050000
C        0.67410000      -1.40660000       4.17980000
O        0.27200000      -2.66970000       4.68730000
C        0.79760000      -2.21840000       1.73410000
H        0.60670000       1.90200000       0.81750000
H       -0.67640000       1.86230000      -0.40340000
H       -1.09080000       1.70500000       1.31010000
H       -1.13140000      -0.59410000       0.21300000
H        2.88690000      -0.33310000       1.75840000
H        1.67890000       0.60640000       2.66240000
H        2.43280000      -2.22570000       3.27750000
H        1.23140000      -0.82900000       4.93570000
H       -0.19910000      -0.80000000       3.88420000
H       -0.31320000      -2.52310000       5.43600000
H       -0.18460000      -2.65610000       1.92720000
H        1.39630000      -2.93130000       1.16060000
