20
Properties=species:S:1:pos:R:3 gdb_8443=T pbc="F F F"
C       -0.15190000       1.52730000       0.10940000
C        0.12770000       0.06090000       0.03090000
O       -0.75070000      -0.82370000       0.74480000
C        0.66040000      -0.91130000       1.00080000
C        1.25600000      -1.79050000      -0.10010000
C        0.70760000      -0.75720000      -1.16380000
C       -0.33260000      -1.29190000      -2.14350000
C        1.83990000      -0.01940000      -1.87680000
H        0.71110000       2.11390000      -0.22010000
H       -1.00340000       1.79630000      -0.52650000
H       -0.39620000       1.81090000       1.13670000
H        0.98040000      -0.78390000       2.02950000
H        2.34810000      -1.83640000      -0.08670000
H        0.84800000      -2.80350000      -0.14730000
H       -1.15620000      -1.76650000      -1.60460000
H       -0.74450000      -0.48640000      -2.76300000
H        0.11030000      -2.03280000      -2.81900000
H        2.37860000      -0.69620000      -2.54920000
H        1.45530000       0.81080000      -2.48020000
H        2.56570000       0.39050000      -1.16540000
