15
Properties=species:S:1:pos:R:3 gdb_128062=T pbc="F F F"
C       -0.00610000       1.41310000       0.04680000
N       -0.02430000      -0.02690000      -0.09870000
C        0.63120000      -0.63840000      -1.12360000
N        1.21100000       0.02010000      -2.05690000
C        0.60330000      -2.12480000      -1.06930000
N        0.03460000      -2.79570000      -0.10040000
O        0.25570000      -4.12980000      -0.44580000
C        0.93710000      -4.10220000      -1.59440000
N        1.18780000      -2.91440000      -2.03770000
H        1.00630000       1.79440000       0.23100000
H       -0.37390000       1.88830000      -0.86710000
H       -0.65240000       1.69170000       0.88140000
H       -0.33350000      -0.59930000       0.66790000
H        1.61030000      -0.62560000      -2.73570000
H        1.20570000      -5.05320000      -2.03000000
