16
Properties=species:S:1:pos:R:3 gdb_35947=T pbc="F F F"
C        0.16190000      -1.20170000       0.31420000
C        0.08030000      -0.02180000       0.10540000
C       -0.07440000       1.42300000      -0.09450000
C       -0.88120000       1.99520000       1.08880000
O       -1.22600000       3.35260000       0.88240000
C       -0.18920000       4.23440000       1.12920000
O        0.77600000       4.34530000       0.08650000
C        1.49060000       3.25820000      -0.31570000
N        1.22130000       2.02830000      -0.37450000
H        0.24980000      -2.24720000       0.47880000
H       -0.69320000       1.58330000      -0.99100000
H       -1.81850000       1.44230000       1.18290000
H       -0.30720000       1.87790000       2.01950000
H       -0.61850000       5.23370000       1.21080000
H        0.34150000       3.95920000       2.05470000
H        2.45880000       3.59610000      -0.68600000
