19
Properties=species:S:1:pos:R:3 gdb_85342=T pbc="F F F"
C       -0.02410000       1.46510000       0.05520000
N        0.00020000       0.01430000       0.01500000
C       -1.33430000      -0.55870000      -0.10700000
C       -1.31600000      -2.08640000      -0.20160000
O       -2.22770000      -2.67610000      -0.75730000
C       -0.19790000      -2.75200000       0.43870000
C        0.75800000      -2.05250000       1.09580000
N        1.75230000      -2.63040000       1.83800000
C        0.73150000      -0.54350000       1.13500000
H        0.99940000       1.85480000       0.07000000
H       -0.52030000       1.84750000      -0.84170000
H       -0.55700000       1.86890000       0.93810000
H       -1.98800000      -0.28520000       0.74890000
H       -1.81530000      -0.17520000      -1.01050000
H       -0.18140000      -3.83720000       0.40150000
H        1.87830000      -3.62740000       1.75790000
H        2.60070000      -2.10910000       1.99040000
H        1.76090000      -0.16040000       1.10600000
H        0.31480000      -0.23250000       2.11810000
