20
Properties=species:S:1:pos:R:3 gdb_120268=T pbc="F F F"
C       -0.01710000       1.48060000      -0.01300000
C        0.23570000      -0.01610000       0.03750000
O        0.40730000      -0.48340000      -1.29480000
C        0.62250000      -1.85720000      -1.37910000
C        0.81270000      -2.39820000      -2.78710000
N        2.07930000      -1.82230000      -3.30470000
C        2.12480000      -3.01450000      -2.42670000
C        2.07470000      -2.41450000      -1.01260000
O        3.04850000      -1.46070000      -0.70910000
H        0.83260000       1.99680000      -0.46850000
H       -0.90940000       1.70110000      -0.60600000
H       -0.16280000       1.87650000       0.99660000
H        1.13230000      -0.24070000       0.63020000
H       -0.61660000      -0.53670000       0.50670000
H       -0.15170000      -2.42300000      -0.83710000
H        0.04920000      -2.74990000      -3.46950000
H        2.18820000      -2.13740000      -4.26680000
H        2.57100000      -3.94280000      -2.76070000
H        2.06120000      -3.15180000      -0.20780000
H        3.07840000      -0.88140000      -1.48450000
