15
Properties=species:S:1:pos:R:3 gdb_10469=T pbc="F F F"
O        0.64610000       0.03000000      -0.75980000
C        0.19900000       0.97220000      -0.15220000
C        1.03900000       2.19920000       0.16680000
C        1.21590000       3.05590000      -1.08200000
C        2.59340000       3.45280000      -1.52640000
N        1.83810000       2.47800000      -2.29640000
C        0.08370000       3.97390000      -1.40680000
O       -0.88390000       4.12730000      -0.70360000
H       -0.85970000       0.99330000       0.17840000
H        0.56550000       2.79840000       0.94840000
H        2.01520000       1.84860000       0.51440000
H        2.75250000       4.40760000      -2.02110000
H        3.41240000       3.12700000      -0.89020000
H        2.11810000       1.52090000      -2.08880000
H        0.20520000       4.50570000      -2.37460000
