18
Properties=species:S:1:pos:R:3 gdb_84572=T pbc="F F F"
O        0.12990000       1.44340000      -0.12650000
C        0.09960000       0.02020000      -0.04440000
C        0.71600000      -0.49260000       1.24460000
C       -0.13780000      -1.19260000       2.00030000
C       -1.47670000      -1.32970000       1.34350000
C       -1.32390000      -0.58330000      -0.00570000
C       -1.61000000      -1.93030000      -0.68090000
C       -0.71110000      -3.01170000      -0.23930000
N       -1.83810000      -2.65080000       0.64050000
H       -0.23220000       1.78610000       0.69840000
H        0.65530000      -0.31570000      -0.92770000
H        1.74230000      -0.25550000       1.50650000
H        0.09740000      -1.63010000       2.96490000
H       -2.32030000      -1.06350000       1.98350000
H       -2.07800000       0.17360000      -0.22270000
H       -2.29750000      -2.05890000      -1.51090000
H       -0.85480000      -3.98470000      -0.69920000
H        0.30870000      -2.80610000       0.07120000
