20
Properties=species:S:1:pos:R:3 gdb_66310=T pbc="F F F"
C        0.13590000       1.62680000      -0.05900000
C       -0.10300000       0.13460000      -0.15120000
C       -1.54540000      -0.33940000      -0.12210000
C       -2.21380000      -0.10770000       1.24410000
N       -3.56900000      -0.63400000       1.30760000
C       -4.64800000       0.09050000       0.91300000
O       -4.60470000       1.23290000       0.50530000
C        0.91780000      -0.72000000      -0.77660000
O        0.78750000      -0.67010000       0.64630000
H        1.20670000       1.84300000      -0.07100000
H       -0.33710000       2.14600000      -0.89920000
H       -0.28110000       2.04000000       0.86450000
H       -2.12580000       0.18040000      -0.89240000
H       -1.57380000      -1.40970000      -0.35330000
H       -1.61730000      -0.58030000       2.02960000
H       -2.27970000       0.96120000       1.45910000
H       -3.71020000      -1.59420000       1.57700000
H       -5.59210000      -0.48130000       1.01630000
H        0.62700000      -1.66160000      -1.24170000
H        1.82560000      -0.27020000      -1.17770000
