14
Properties=species:S:1:pos:R:3 gdb_33610=T pbc="F F F"
N        0.13690000      -1.16130000       0.11230000
C        0.05930000      -0.00680000       0.05890000
C       -0.04770000       1.40090000      -0.01770000
C       -0.03440000       2.47400000       1.06460000
C        1.01430000       2.49410000      -0.03140000
C        0.23480000       3.35600000      -1.06910000
O       -0.44100000       4.39930000      -0.33920000
C       -1.12110000       3.33020000       0.34800000
C       -0.94970000       2.35850000      -0.86320000
H        0.19190000       2.35890000       2.11460000
H        2.07520000       2.39490000       0.14640000
H        0.69170000       3.66980000      -2.00450000
H       -2.04100000       3.61760000       0.85140000
H       -1.70890000       2.09940000      -1.59430000
