17
Properties=species:S:1:pos:R:3 gdb_16278=T pbc="F F F"
C       -0.11010000       1.57060000       0.05010000
C        0.06610000       0.05970000       0.00780000
C        1.16400000      -0.57120000      -0.91820000
C        1.77240000      -1.29090000       0.28950000
C        2.19510000      -0.30440000       1.32780000
C        0.72220000      -0.64210000       1.22140000
C        0.00150000      -1.22110000       2.30620000
N       -0.60560000      -1.68630000       3.17610000
H        0.83230000       2.08730000       0.25800000
H       -0.48510000       1.94030000      -0.91020000
H       -0.82910000       1.85860000       0.82400000
H       -0.89560000      -0.41770000      -0.19690000
H        0.74330000      -1.24500000      -1.66620000
H        1.83460000       0.13440000      -1.41910000
H        2.10770000      -2.31990000       0.31120000
H        2.68980000      -0.71660000       2.20020000
H        2.53670000       0.68690000       1.04270000
