17
Properties=species:S:1:pos:R:3 gdb_69102=T pbc="F F F"
N        0.19110000       1.41080000      -0.15760000
C        0.05510000       0.00480000      -0.00250000
C       -0.26860000      -0.88160000      -1.15430000
C       -1.27070000      -0.81800000      -0.00260000
C       -1.08920000      -1.87210000       1.08180000
O        0.31430000      -1.93290000       1.31000000
C        0.86760000      -0.64220000       1.11020000
C       -2.52530000      -0.16800000      -0.18030000
N       -3.53030000       0.39220000      -0.31580000
H       -0.30250000       1.75270000      -0.97400000
H       -0.16490000       1.91270000       0.65070000
H       -0.57260000      -0.40370000      -2.07930000
H        0.27830000      -1.81120000      -1.27670000
H       -1.63870000      -1.57310000       1.98730000
H       -1.41270000      -2.87570000       0.78970000
H        1.92370000      -0.76820000       0.85490000
H        0.80000000      -0.02090000       2.01920000
