25
Properties=species:S:1:pos:R:3 gdb_78222=T pbc="F F F"
C       -0.59620000       0.87060000       0.32180000
C        0.07370000      -0.36930000       0.88250000
C        1.37180000      -0.96950000       0.42010000
C        1.21400000      -0.47860000       1.86580000
C        2.39140000       0.50670000       1.68680000
C        2.16430000       1.98620000       2.00810000
C        3.59100000      -0.00050000       2.49720000
C        2.45100000       0.09990000       0.15780000
C        3.76450000      -0.41580000      -0.41930000
H        0.11000000       1.58670000      -0.10200000
H       -1.28740000       0.58820000      -0.48050000
H       -1.17810000       1.39080000       1.09070000
H       -0.65550000      -1.15090000       1.09710000
H        1.43850000      -1.98900000       0.05480000
H        1.09450000      -1.07790000       2.76400000
H        1.96120000       2.12410000       3.07660000
H        3.05700000       2.57620000       1.76660000
H        1.32550000       2.41290000       1.45550000
H        3.76100000      -1.07160000       2.35570000
H        4.51140000       0.53010000       2.23090000
H        3.41290000       0.16310000       3.56640000
H        2.09780000       0.91010000      -0.49200000
H        4.15610000      -1.27440000       0.13350000
H        3.61610000      -0.73620000      -1.45680000
H        4.53550000       0.36220000      -0.42330000
