16
Properties=species:S:1:pos:R:3 gdb_5796=T pbc="F F F"
C       -0.13630000       1.43590000      -0.15540000
C        1.27850000       0.95470000       0.07920000
C        0.13860000      -0.02750000       0.06130000
N       -0.28690000      -0.69380000       1.26160000
C       -0.73800000      -1.99540000       1.33120000
C       -1.03390000      -2.21890000       2.65010000
N       -0.77800000      -1.09550000       3.39740000
C       -0.33420000      -0.20510000       2.53700000
H       -0.62760000       1.97370000       0.64750000
H       -0.42150000       1.75810000      -1.15050000
H        1.97270000       0.94390000      -0.75350000
H        1.73370000       1.17030000       1.03920000
H        0.05660000      -0.68570000      -0.79490000
H       -0.80020000      -2.61420000       0.45120000
H       -1.41470000      -3.12280000       3.10060000
H       -0.03400000       0.80280000       2.77990000
