16
Properties=species:S:1:pos:R:3 gdb_85804=T pbc="F F F"
C       -0.02230000       1.35610000       0.55100000
N        0.01280000       0.11970000      -0.18540000
C       -1.08590000      -0.78930000      -0.53350000
C        0.00390000      -1.86040000      -0.86730000
O       -0.09200000      -3.01970000      -0.08750000
C        0.13950000      -2.16270000      -2.29930000
N        0.24290000      -2.40420000      -3.42440000
C        1.00770000      -0.82150000      -0.32410000
N        2.23580000      -0.97000000      -0.07070000
H        0.99000000       1.76510000       0.60680000
H       -0.65560000       2.08790000       0.03930000
H       -0.40040000       1.22080000       1.57420000
H       -1.70080000      -1.10640000       0.31580000
H       -1.71360000      -0.45220000      -1.36260000
H        0.81300000      -3.30540000       0.09770000
H        2.65510000      -0.16350000       0.39190000
