19
Properties=species:S:1:pos:R:3 gdb_62429=T pbc="F F F"
C       -0.07870000       1.56290000       0.05190000
C        0.02790000       0.04760000      -0.00380000
C       -1.12090000      -0.63250000       0.53730000
C       -2.08420000      -1.18970000       0.99610000
C        0.70610000      -0.68270000      -1.16090000
C        1.63200000       0.09910000      -2.09590000
C        2.77390000       0.52530000      -1.19670000
C        2.62350000       0.07010000       0.05060000
C        1.36370000      -0.70690000       0.20480000
H        0.84950000       2.04620000      -0.25710000
H       -0.88600000       1.91090000      -0.60070000
H       -0.31000000       1.88850000       1.07040000
H       -2.93470000      -1.68040000       1.39950000
H        0.19220000      -1.55410000      -1.54690000
H        1.98180000      -0.53550000      -2.92080000
H        1.13410000       0.95860000      -2.56430000
H        3.58900000       1.14980000      -1.54490000
H        3.30770000       0.24710000       0.87230000
H        1.33020000      -1.57500000       0.85270000
