21
Properties=species:S:1:pos:R:3 gdb_77620=T pbc="F F F"
C       -0.00790000       1.55750000      -0.00030000
C        0.10730000       0.05000000      -0.08180000
C        0.70120000      -0.74030000      -1.21210000
C       -0.03000000      -1.85520000      -1.90190000
C        1.92650000      -0.02120000      -1.79760000
C        2.60610000      -0.01840000      -0.39480000
C        1.37990000      -0.73910000       0.19590000
C        1.43570000      -1.77280000       1.17060000
C        1.49920000      -2.65570000       1.98840000
H        0.86400000       2.07200000      -0.41080000
H       -0.88650000       1.90520000      -0.55520000
H       -0.12320000       1.88020000       1.03990000
H       -0.75430000      -0.46200000       0.34290000
H       -0.67140000      -1.47080000      -2.70480000
H        0.66770000      -2.57200000      -2.34940000
H       -0.66670000      -2.40200000      -1.19930000
H        2.46620000      -0.64780000      -2.51160000
H        1.74210000       0.95040000      -2.26690000
H        3.49860000      -0.64520000      -0.36500000
H        2.84960000       0.95340000       0.04500000
H        1.55170000      -3.42840000       2.71420000
