17
Properties=species:S:1:pos:R:3 gdb_99403=T pbc="F F F"
C        1.39830000      -0.69350000      -0.17450000
N        0.05130000      -0.13350000      -0.17750000
C       -1.13370000      -0.80300000      -0.19400000
N       -2.31550000      -0.29130000      -0.25130000
C       -2.44570000       1.14580000      -0.35810000
C       -1.16350000      -2.30520000      -0.20140000
O       -0.21210000      -3.01820000      -0.41330000
C       -2.56380000      -2.91450000       0.04490000
O       -2.93640000      -3.87280000      -0.57660000
H        2.09690000       0.12690000       0.00580000
H        1.51950000      -1.43230000       0.61890000
H        1.65400000      -1.17430000      -1.12320000
H       -0.01310000       0.86470000      -0.28460000
H       -2.02480000       1.66200000       0.52060000
H       -1.93710000       1.54910000      -1.24950000
H       -3.50170000       1.41470000      -0.42710000
H       -3.15790000      -2.44930000       0.85230000
