21
Properties=species:S:1:pos:R:3 gdb_75464=T pbc="F F F"
C       -0.29580000       1.48500000      -0.13790000
C       -0.05710000       0.00890000      -0.10730000
C        0.10070000      -0.82200000      -1.14010000
C        0.31010000      -2.25520000      -0.71800000
C       -0.04600000      -2.21940000       0.78660000
C        0.04470000      -0.73910000       1.20400000
C        1.16900000      -0.30540000       2.19320000
C        0.01820000       0.02310000       3.15740000
O       -0.97080000      -0.36000000       2.18160000
H        0.51740000       2.03760000       0.35070000
H       -0.38510000       1.85700000      -1.16170000
H       -1.21350000       1.73140000       0.40720000
H        0.10370000      -0.51480000      -2.18140000
H       -0.31140000      -2.95880000      -1.28390000
H        1.35050000      -2.56760000      -0.88280000
H       -1.08680000      -2.52410000       0.93500000
H        0.57890000      -2.87410000       1.40000000
H        1.83910000      -1.10890000       2.50370000
H        1.76490000       0.54970000       1.86900000
H       -0.03880000      -0.59610000       4.06140000
H       -0.07790000       1.07670000       3.44680000
