19
Properties=species:S:1:pos:R:3 gdb_59002=T pbc="F F F"
C        0.45870000       0.87760000      -0.75670000
C       -0.07080000       0.06460000       0.42350000
O        0.07080000       0.78300000       1.65600000
C       -1.48760000      -0.41870000       0.26650000
C       -2.30280000      -0.28380000      -0.78830000
C       -3.59230000      -0.99630000      -0.55170000
O       -3.42600000      -2.42020000      -0.34920000
C       -3.51120000      -1.57640000       0.80070000
C       -2.16470000      -1.18910000       1.39440000
H        1.47460000       1.21610000      -0.53970000
H        0.47760000       0.28120000      -1.67370000
H       -0.16650000       1.75950000      -0.93790000
H        0.57600000      -0.81270000       0.56270000
H       -0.48780000       1.56640000       1.59290000
H       -2.06560000       0.22160000      -1.71580000
H       -4.51810000      -0.70720000      -1.03980000
H       -4.37800000      -1.73820000       1.43580000
H       -1.58160000      -2.06860000       1.69340000
H       -2.27760000      -0.56770000       2.28980000
