18
Properties=species:S:1:pos:R:3 gdb_29393=T pbc="F F F"
C       -0.17970000       1.54170000      -0.31760000
C       -0.03450000       0.07470000      -0.04520000
C        0.23360000      -0.90920000      -0.97140000
N        0.27460000      -2.11700000      -0.32100000
C        0.03570000      -1.93080000       1.02050000
C        0.03920000      -3.09150000       1.97030000
C        1.41690000      -3.73260000       1.92860000
O        1.68410000      -4.70290000       1.26440000
C       -0.15240000      -0.58040000       1.21740000
H        0.54420000       2.13480000       0.25350000
H       -0.02360000       1.76310000      -1.37750000
H       -1.17680000       1.90950000      -0.04770000
H        0.39470000      -0.84360000      -2.03600000
H        0.48960000      -3.00570000      -0.74100000
H       -0.17600000      -2.72600000       2.97860000
H       -0.70360000      -3.84970000       1.69700000
H        2.19880000      -3.19610000       2.51030000
H       -0.36750000      -0.11120000       2.16660000
