15
Properties=species:S:1:pos:R:3 gdb_56493=T pbc="F F F"
N       -0.04250000       1.50590000       0.14240000
C       -0.01600000       0.06390000      -0.01450000
C       -1.37380000      -0.48480000       0.12100000
N       -2.43030000      -0.94140000       0.21450000
C        0.62840000      -0.46930000      -1.36270000
C       -0.09130000       0.05580000      -2.52320000
C       -0.71020000       0.51170000      -3.44570000
C        2.04640000      -0.10580000      -1.38450000
C        3.20440000       0.21160000      -1.34970000
H        0.90990000       1.85770000       0.10160000
H       -0.55430000       1.92580000      -0.62930000
H        0.59040000      -0.35520000       0.79630000
H        0.54200000      -1.56460000      -1.35400000
H       -1.25460000       0.89380000      -4.27430000
H        4.23340000       0.47640000      -1.34370000
