19
Properties=species:S:1:pos:R:3 gdb_87882=T pbc="F F F"
O       -0.35400000       1.34310000      -0.37150000
C       -0.18200000      -0.03710000      -0.22610000
C       -0.28920000      -0.65990000       1.14560000
C       -1.40690000      -0.80310000       0.14160000
C       -2.83590000      -0.24100000       0.24060000
C       -3.35180000      -1.50400000      -0.50430000
C       -3.20290000      -1.46910000      -2.03870000
O       -1.86380000      -2.02030000      -1.98220000
C       -1.90680000      -2.07910000      -0.54330000
H        0.44860000       1.77720000      -0.06440000
H        0.49280000      -0.49810000      -0.94720000
H        0.32040000      -1.52990000       1.37220000
H       -0.46220000       0.01170000       1.98130000
H       -3.20670000      -0.16900000       1.26700000
H       -3.00410000       0.71610000      -0.26000000
H       -4.21240000      -2.03020000      -0.09480000
H       -3.87880000      -2.13610000      -2.58760000
H       -3.22670000      -0.47420000      -2.50120000
H       -1.57930000      -3.04740000      -0.15350000
