20
Properties=species:S:1:pos:R:3 gdb_22134=T pbc="F F F"
C        1.71560000      -2.15880000      -0.57780000
C        0.72680000      -1.06400000      -0.27910000
C        0.13360000      -0.94940000       1.10440000
C        1.14580000      -0.54680000       2.17300000
C        1.80520000       0.80320000       2.00040000
C        1.03050000      -1.13860000       3.51440000
O        2.02660000      -1.60270000       2.59890000
N        0.31960000      -0.20210000      -1.13240000
O        0.90820000      -0.40000000      -2.39310000
H        1.24270000      -2.93350000      -1.19330000
H        2.55530000      -1.76910000      -1.15910000
H        2.08120000      -2.61340000       0.34310000
H       -0.67210000      -0.20940000       1.07520000
H       -0.30050000      -1.91540000       1.38930000
H        1.05810000       1.60340000       2.03090000
H        2.53750000       0.97440000       2.79280000
H        2.31600000       0.86620000       1.03500000
H        1.41060000      -0.59470000       4.37820000
H        0.22770000      -1.84290000       3.73000000
H        0.52080000       0.31440000      -2.90930000
