16
Properties=species:S:1:pos:R:3 gdb_125650=T pbc="F F F"
C       -0.01780000       1.50440000      -0.05600000
C       -0.00690000       0.01300000       0.03890000
N       -0.03330000      -0.74330000      -1.05990000
N       -0.01460000      -2.04130000      -0.64940000
C        0.02370000      -2.14210000       0.70790000
C        0.02940000      -0.82890000       1.17550000
N        0.06820000      -0.88280000       2.55300000
C        0.08610000      -2.21050000       2.92960000
C        0.05970000      -3.03020000       1.81940000
H        0.87600000       1.94640000       0.40030000
H       -0.04950000       1.80430000      -1.10550000
H       -0.88880000       1.93670000       0.45090000
H       -0.03030000      -2.76480000      -1.34450000
H        0.08140000      -0.10470000       3.18630000
H        0.11670000      -2.47830000       3.97470000
H        0.06600000      -4.10790000       1.83050000
