21
Properties=species:S:1:pos:R:3 gdb_122982=T pbc="F F F"
O       -0.04790000       1.36740000      -0.15660000
C        0.00370000      -0.04420000      -0.19030000
C       -1.38280000      -0.65540000      -0.07190000
O       -2.13460000      -0.18750000      -1.18140000
C       -3.50600000      -0.54700000      -1.15180000
C       -4.10740000      -0.09040000      -2.47340000
O       -3.41770000      -0.69410000      -3.56170000
C       -5.57220000      -0.48180000      -2.63780000
O       -6.06880000      -0.06640000      -3.89200000
H       -0.71750000       1.62320000      -0.80150000
H        0.47930000      -0.41030000      -1.11480000
H        0.62130000      -0.36730000       0.65390000
H       -1.33200000      -1.75590000      -0.07190000
H       -1.85680000      -0.32960000       0.86660000
H       -3.60790000      -1.63860000      -1.04890000
H       -4.01470000      -0.06910000      -0.29990000
H       -4.02650000       1.00680000      -2.53690000
H       -2.47700000      -0.56050000      -3.39840000
H       -5.66660000      -1.57270000      -2.50750000
H       -6.18250000       0.00600000      -1.87040000
H       -5.41790000      -0.35830000      -4.54180000
