15
Properties=species:S:1:pos:R:3 gdb_131514=T pbc="F F F"
O       -0.12490000       1.40250000      -0.40290000
C        0.12730000       0.03060000      -0.13030000
C       -1.14870000      -0.79860000       0.19360000
C       -1.57230000      -1.49760000      -1.10890000
C       -0.28300000      -1.64910000      -1.93400000
C        0.68000000      -0.73470000      -1.30860000
N        1.88280000      -0.57860000      -1.78090000
N        2.91820000      -0.46810000      -2.22150000
O       -0.11940000      -2.36020000      -2.89810000
H       -0.65050000       1.45890000      -1.20920000
H        0.81300000       0.05160000       0.72080000
H       -0.90000000      -1.54630000       0.95290000
H       -1.91410000      -0.14110000       0.61090000
H       -2.03700000      -2.47450000      -0.96000000
H       -2.27710000      -0.89700000      -1.69720000
