19
Properties=species:S:1:pos:R:3 gdb_50541=T pbc="F F F"
O        0.09860000       0.05230000       0.59530000
C        0.35150000       0.83800000      -0.28460000
C        1.20370000       2.06730000      -0.15370000
C        0.62300000       3.42410000      -0.66320000
C        1.35100000       4.11590000       0.52180000
C        1.52420000       2.73480000       1.22010000
C        0.50250000       2.47770000       2.34450000
C        0.74930000       3.33340000       3.49940000
C        0.97450000       4.05020000       4.43810000
H       -0.05460000       0.68630000      -1.31380000
H        2.13540000       1.85230000      -0.69500000
H        0.89130000       3.73370000      -1.67490000
H       -0.46560000       3.46680000      -0.56520000
H        2.30880000       4.54430000       0.21640000
H        0.79360000       4.87140000       1.07930000
H        2.52520000       2.52920000       1.60540000
H       -0.51660000       2.65250000       1.97500000
H        0.53540000       1.42360000       2.63460000
H        1.16290000       4.67270000       5.27720000
