18
Properties=species:S:1:pos:R:3 gdb_126920=T pbc="F F F"
C        0.07700000       1.45520000       0.10850000
C       -0.03920000      -0.03750000      -0.17930000
N       -1.40720000      -0.49450000       0.05650000
C       -1.72010000      -1.82450000       0.04830000
C       -2.91180000      -2.49250000      -0.04910000
C       -2.52590000      -3.85410000       0.09420000
N       -3.37250000      -4.95160000       0.14840000
N       -1.22660000      -4.00960000       0.24180000
O       -0.70820000      -2.68310000       0.21880000
H        1.10250000       1.79490000      -0.05980000
H       -0.57650000       2.03970000      -0.54990000
H       -0.19790000       1.67560000       1.14390000
H        0.28610000      -0.25310000      -1.20860000
H        0.61810000      -0.60530000       0.48370000
H       -2.12890000       0.09760000      -0.32640000
H       -3.90080000      -2.08280000      -0.16430000
H       -4.15240000      -4.89710000      -0.49130000
H       -2.87350000      -5.82600000       0.04700000
