23
Properties=species:S:1:pos:R:3 gdb_122369=T pbc="F F F"
C        0.16720000       1.40750000      -0.08720000
O        0.26070000       0.00660000      -0.15730000
C        0.73640000      -0.57340000       1.03810000
C        0.79460000      -2.08630000       0.85680000
C        1.35640000      -2.78860000       2.08580000
C        0.51270000      -3.01180000       3.38920000
C       -0.25400000      -4.14670000       2.64830000
C        1.24590000      -4.33690000       2.27460000
C        1.56270000      -4.09190000       3.77860000
H        1.14630000       1.87530000       0.10610000
H       -0.20720000       1.76120000      -1.05120000
H       -0.52710000       1.73390000       0.70410000
H        1.73700000      -0.17560000       1.28510000
H        0.07310000      -0.31200000       1.88130000
H       -0.20720000      -2.43950000       0.59730000
H        1.43440000      -2.30320000      -0.00780000
H        2.36440000      -2.40640000       2.29430000
H        0.08790000      -2.24710000       4.04230000
H       -0.69240000      -4.92220000       3.28260000
H       -0.94570000      -3.86260000       1.85440000
H        1.67290000      -5.10710000       1.62930000
H        2.56940000      -3.73760000       4.01880000
H        1.23040000      -4.86350000       4.47810000
