19
Properties=species:S:1:pos:R:3 gdb_80180=T pbc="F F F"
C       -0.08520000       1.57680000       0.02090000
C        0.02240000       0.07100000       0.05720000
C        1.32000000      -0.68520000      -0.20730000
N        2.58010000      -0.02740000      -0.02880000
C        2.72140000       0.48260000       1.26130000
O        3.59840000       1.22270000       1.65510000
N        1.65900000      -0.01220000       1.99930000
C        1.41980000       0.38050000       3.36610000
C        0.71200000      -0.69910000       1.17620000
H        0.79260000       2.06430000       0.45150000
H       -0.18990000       1.93470000      -1.00910000
H       -0.96130000       1.91820000       0.58220000
H       -0.84420000      -0.45620000      -0.33590000
H        1.31890000      -1.56000000      -0.84820000
H        3.04580000       0.46670000      -0.77210000
H        2.30050000       0.92920000       3.70510000
H        0.53910000       1.02960000       3.45780000
H        1.27130000      -0.49530000       4.00940000
H        0.25030000      -1.58200000       1.60680000
