19
Properties=species:S:1:pos:R:3 gdb_35964=T pbc="F F F"
C        0.11920000      -1.20990000       0.03760000
C        0.02690000      -0.01140000       0.00970000
C       -0.04890000       1.44690000       0.00710000
C       -0.83230000       1.95330000       1.24370000
C       -1.38100000       3.38140000       1.10880000
O       -0.56820000       4.29440000       0.38160000
C        0.81420000       4.24840000       0.59540000
O        1.47400000       3.39940000      -0.30560000
C        1.39450000       2.01840000      -0.02770000
H        0.18770000      -2.26960000       0.04620000
H       -0.55740000       1.77960000      -0.90680000
H       -1.68140000       1.29070000       1.43790000
H       -0.17780000       1.86700000       2.11850000
H       -2.32790000       3.36490000       0.55990000
H       -1.59340000       3.78000000       2.11270000
H        1.19410000       5.25070000       0.38290000
H        1.05120000       3.97300000       1.63790000
H        1.88230000       1.78450000       0.93280000
H        1.96060000       1.52490000      -0.82090000
