21
Properties=species:S:1:pos:R:3 gdb_102758=T pbc="F F F"
O        0.17590000       1.34760000       0.01230000
C        0.07620000      -0.06580000       0.00090000
C       -1.37700000      -0.55880000       0.01630000
C       -1.44480000      -2.09730000       0.15760000
C       -2.82740000      -2.66540000      -0.08420000
C       -3.26990000      -3.01100000      -1.48440000
C       -2.99470000      -4.10800000      -0.48430000
C       -2.11290000       0.09330000       1.17190000
O       -3.17190000       0.65880000       1.09230000
H       -0.28150000       1.68720000      -0.76410000
H        0.60390000      -0.50830000      -0.85810000
H        0.59500000      -0.40370000       0.90590000
H       -1.88410000      -0.25850000      -0.90900000
H       -0.73750000      -2.54580000      -0.55220000
H       -1.09010000      -2.38080000       1.15880000
H       -3.59930000      -2.25960000       0.56410000
H       -4.29790000      -2.81360000      -1.76630000
H       -2.55560000      -2.87360000      -2.29030000
H       -2.09750000      -4.70330000      -0.62090000
H       -3.83500000      -4.66150000      -0.08040000
H       -1.59090000      -0.01690000       2.15300000
