18
Properties=species:S:1:pos:R:3 gdb_55092=T pbc="F F F"
C        0.27830000       1.06840000      -0.68390000
C        0.14370000      -0.20320000       0.08530000
C       -0.90880000      -0.56190000       1.08760000
C        0.55640000      -0.67330000       1.46560000
C        1.15320000      -1.87610000       0.74640000
O        0.63830000      -1.41260000      -0.53560000
C        2.67930000      -1.92970000       0.80770000
N        3.29240000      -1.64240000      -0.36540000
O        3.24450000      -2.20740000       1.84800000
H        1.31880000       1.24500000      -0.97420000
H       -0.33200000       1.03440000      -1.59350000
H       -0.06230000       1.91500000      -0.08130000
H       -1.42690000       0.27710000       1.54210000
H       -1.51210000      -1.45460000       0.94480000
H        1.01350000      -0.15620000       2.29730000
H        0.75980000      -2.86310000       1.01620000
H        2.73030000      -1.44560000      -1.17690000
H        4.29560000      -1.68730000      -0.42380000
