14
Properties=species:S:1:pos:R:3 gdb_129832=T pbc="F F F"
N        0.08790000       1.37530000      -0.07390000
C        0.00420000       0.00470000      -0.02480000
C       -1.13880000      -0.72370000      -0.05560000
C       -1.10430000      -2.16510000       0.00030000
O       -2.04750000      -2.91260000      -0.01330000
O        0.16410000      -2.74490000       0.11340000
N        1.34050000      -2.02080000       0.07060000
C        1.25980000      -0.73480000       0.01660000
N        2.45050000       0.00080000       0.06450000
H        0.88540000       1.77180000       0.40370000
H       -0.77220000       1.88090000       0.07890000
H       -2.12060000      -0.26690000      -0.08900000
H        3.25130000      -0.62020000       0.10410000
H        2.54400000       0.64390000      -0.71510000
