13
Properties=species:S:1:pos:R:3 gdb_129918=T pbc="F F F"
N        0.01690000       1.44680000       0.17030000
C        0.02510000       0.04920000       0.04600000
C       -1.06270000      -0.81590000       0.00960000
N       -0.64820000      -2.14440000      -0.02430000
C        0.71550000      -2.11730000      -0.01720000
C        1.15340000      -0.81100000       0.02970000
O        2.48450000      -0.81410000       0.02920000
N        2.84880000      -2.25660000      -0.02290000
N        1.78740000      -2.94120000      -0.04700000
H        0.79790000       1.87950000      -0.30640000
H       -0.84440000       1.86440000      -0.15760000
H       -2.11440000      -0.57590000       0.01470000
H       -1.24780000      -2.94810000      -0.05250000
