19
Properties=species:S:1:pos:R:3 gdb_107028=T pbc="F F F"
O        0.08310000       1.37680000       0.11040000
C        0.01940000      -0.03400000      -0.05140000
C       -1.39040000      -0.54470000      -0.06440000
C       -2.12140000      -0.98080000       1.18330000
C       -1.93620000      -1.98060000       0.08170000
C       -2.95000000      -1.72330000      -1.04350000
O       -4.32000000      -1.82410000      -0.76320000
C       -2.40200000      -0.25260000      -1.16460000
O       -3.35510000       0.74750000      -0.83000000
H       -0.48840000       1.60600000       0.85100000
H        0.51440000      -0.23760000      -1.00850000
H        0.59390000      -0.55960000       0.72950000
H       -1.48580000      -1.13000000       2.05100000
H       -3.10750000      -0.59330000       1.41730000
H       -1.37410000      -2.89570000       0.22400000
H       -2.73250000      -2.32510000      -1.93150000
H       -4.59150000      -0.93770000      -0.48530000
H       -1.92960000      -0.04010000      -2.12880000
H       -3.74930000       1.07750000      -1.64330000
