16
Properties=species:S:1:pos:R:3 gdb_98146=T pbc="F F F"
C        0.04480000       1.44940000       0.09260000
N       -0.07500000       0.02010000      -0.10640000
C        0.58460000      -0.68250000      -1.05610000
N        1.26760000       0.02490000      -2.00320000
H        1.62030000      -0.53420000      -2.76760000
H        0.91790000       0.93340000      -2.26190000
C        0.60470000      -2.07970000      -1.05700000
C        1.23310000      -2.78730000      -2.10620000
C        1.77980000      -3.35090000      -3.02420000
C       -0.01740000      -2.74950000       0.02180000
N       -0.55580000      -3.22140000       0.93850000
H        1.09330000       1.76790000       0.12250000
H       -0.47300000       2.02220000      -0.68880000
H       -0.41960000       1.70640000       1.04550000
H       -0.52570000      -0.52970000       0.60870000
H        2.25970000      -3.87270000      -3.81400000
