15
Properties=species:S:1:pos:R:3 gdb_35440=T pbc="F F F"
C        0.10340000      -1.19900000       0.03020000
C        0.05010000       0.00180000      -0.01060000
C       -0.05860000       1.41990000      -0.03140000
C        0.27850000       2.27780000      -1.19330000
N        1.13550000       2.39240000      -0.00760000
C        0.37310000       3.25320000       0.95640000
C       -0.81060000       2.23910000       1.04030000
C       -2.15430000       2.69440000       0.71730000
N       -3.20820000       3.08190000       0.44160000
H        0.15920000      -2.25950000       0.05820000
H        0.76900000       1.78590000      -2.02610000
H       -0.38130000       3.10050000      -1.46310000
H        0.91500000       3.34670000       1.89730000
H        0.13230000       4.24560000       0.56660000
H       -0.82030000       1.71910000       1.99950000
