19
Properties=species:S:1:pos:R:3 gdb_90180=T pbc="F F F"
O        0.01430000       1.44540000      -0.09790000
C        0.06490000       0.02970000      -0.04120000
C        0.70640000      -0.52310000       1.28300000
C       -0.07980000      -1.77900000       1.52900000
C       -0.78710000      -2.47980000       2.70460000
C       -2.10530000      -2.47780000       1.83800000
C       -1.30630000      -1.77700000       0.72350000
C       -1.39410000      -0.52150000      -0.09570000
O       -0.20390000      -2.63090000       0.38000000
H        0.90080000       1.77160000      -0.28010000
H        0.62510000      -0.36700000      -0.89630000
H        1.78830000      -0.66380000       1.18870000
H        0.52500000       0.19920000       2.08730000
H       -0.37640000      -3.45070000       2.99060000
H       -0.87480000      -1.84770000       3.59140000
H       -2.53230000      -3.44760000       1.57330000
H       -2.88350000      -1.84510000       2.27120000
H       -2.05940000       0.20220000       0.38890000
H       -1.73650000      -0.65710000      -1.12530000
