12
Properties=species:S:1:pos:R:3 gdb_24825=T pbc="F F F"
O       -0.02280000      -0.03210000       0.00410000
C       -0.01250000       1.17300000       0.00970000
N       -1.22060000       1.92080000       0.02930000
C       -1.17640000       3.18740000       0.03490000
O       -0.06670000       3.97220000       0.02420000
C        1.12660000       3.33330000       0.00540000
C        1.23430000       1.98730000      -0.00260000
C        2.50110000       1.35320000      -0.02220000
C        3.57380000       0.80860000      -0.03890000
H       -2.06980000       3.80500000       0.04960000
H        1.95950000       4.02390000      -0.00210000
H        4.51460000       0.31560000      -0.05370000
