15
Properties=species:S:1:pos:R:3 gdb_56044=T pbc="F F F"
N       -0.15600000       1.40970000       0.11880000
C        0.00430000       0.04910000       0.02660000
N        1.12200000      -0.57880000      -0.01490000
H        2.22540000      -2.08490000      -0.06240000
C        2.36130000       0.16850000       0.00460000
C        3.55910000      -0.79480000      -0.03650000
O        3.20830000      -2.08320000      -0.07070000
O        4.69750000      -0.41150000      -0.03730000
C       -1.22350000      -0.69970000       0.01780000
C       -2.26690000      -1.29550000       0.00550000
H        0.62620000       2.00950000      -0.08560000
H       -1.07090000       1.79490000      -0.04470000
H        2.46700000       0.84680000      -0.85670000
H        2.46920000       0.78710000       0.90820000
H       -3.17770000      -1.84330000      -0.00370000
