18
Properties=species:S:1:pos:R:3 gdb_73396=T pbc="F F F"
O       -0.02680000       1.41920000       0.06200000
C        0.01100000       0.03380000       0.01090000
C        0.94080000      -0.70640000       0.96780000
C        0.52900000      -2.14580000       0.55630000
N       -0.49610000      -1.93130000      -0.49730000
C       -1.33930000      -0.76910000       0.04870000
C       -2.07780000      -0.31180000      -1.19560000
C       -1.12190000      -0.33290000      -2.12620000
C        0.09050000      -0.79810000      -1.34690000
H        0.85770000       1.74660000       0.25290000
H        1.99700000      -0.48260000       0.77780000
H        0.72620000      -0.46790000       2.01410000
H        1.35530000      -2.73140000       0.14370000
H        0.08960000      -2.71610000       1.37920000
H       -1.88350000      -0.94210000       0.97890000
H       -3.12330000      -0.05140000      -1.26170000
H       -1.15690000      -0.09100000      -3.17780000
H        1.03260000      -1.00140000      -1.85990000
