17
Properties=species:S:1:pos:R:3 gdb_45277=T pbc="F F F"
O        0.03940000      -0.00150000      -0.15980000
C        0.04470000       1.18740000      -0.02860000
C       -1.07530000       2.26160000       0.09290000
C       -0.04230000       3.37780000      -0.23880000
C        0.51430000       4.16540000       0.97300000
C        1.54000000       3.03150000       1.22740000
C        2.88410000       3.10560000       0.46220000
O        2.37910000       2.29200000      -0.63280000
C        1.09330000       2.27460000      -0.06890000
H       -1.85240000       2.12670000      -0.66360000
H       -1.54990000       2.31770000       1.07630000
H       -0.21030000       3.89230000      -1.18400000
H        0.97550000       5.12440000       0.72050000
H       -0.20340000       4.33450000       1.78050000
H        1.57310000       2.55320000       2.20550000
H        3.17990000       4.10600000       0.12450000
H        3.73230000       2.61740000       0.95210000
