18
Properties=species:S:1:pos:R:3 gdb_52179=T pbc="F F F"
O       -0.62310000       0.71580000       0.70250000
C        0.07250000       0.98260000      -0.24230000
C        1.31000000       1.84980000      -0.19110000
C        1.22690000       3.02490000      -1.17540000
N        2.48580000       3.74080000      -1.24950000
C        2.87950000       4.57350000      -0.08410000
C        3.25030000       5.68460000      -1.07790000
O        3.83740000       6.72020000      -1.01440000
C        2.56110000       4.88350000      -2.19240000
H       -0.16630000       0.58680000      -1.25820000
H        1.45420000       2.19320000       0.83720000
H        2.17270000       1.23170000      -0.47530000
H        0.99680000       2.64410000      -2.17830000
H        0.38940000       3.69050000      -0.88540000
H        2.03910000       4.88060000       0.56120000
H        3.67960000       4.16700000       0.54210000
H        3.12740000       4.69900000      -3.11110000
H        1.58520000       5.32530000      -2.45450000
