25
Properties=species:S:1:pos:R:3 gdb_121945=T pbc="F F F"
C        0.06050000       1.31320000       0.22600000
O       -0.02110000      -0.08980000       0.22710000
C       -1.32150000      -0.56610000      -0.05150000
C       -1.28350000      -2.08960000      -0.04440000
C       -2.65780000      -2.76760000      -0.19490000
C       -3.32280000      -2.46750000      -1.54770000
C       -2.52860000      -4.26730000       0.01360000
C       -2.49640000      -4.85370000       1.40120000
C       -3.69600000      -5.08010000       0.51110000
H        1.09580000       1.58320000       0.44940000
H       -0.21380000       1.74050000      -0.75240000
H       -0.59550000       1.76390000       0.98850000
H       -2.03430000      -0.19690000       0.70830000
H       -1.66310000      -0.17730000      -1.02520000
H       -0.61330000      -2.42920000      -0.84490000
H       -0.82640000      -2.40730000       0.89950000
H       -3.31400000      -2.38190000       0.60030000
H       -4.27790000      -2.99460000      -1.63450000
H       -3.51750000      -1.39950000      -1.68410000
H       -2.68430000      -2.79730000      -2.37610000
H       -1.89230000      -4.75800000      -0.72080000
H       -1.83450000      -5.68940000       1.59960000
H       -2.61330000      -4.17390000       2.23940000
H       -4.61200000      -4.55220000       0.75790000
H       -3.85460000      -6.07090000       0.09990000
