18
Properties=species:S:1:pos:R:3 gdb_78399=T pbc="F F F"
C       -0.10040000       1.41040000       0.00250000
C        0.03630000      -0.09700000       0.06220000
C        1.39610000      -0.67480000      -0.22210000
C        0.82490000      -0.67270000       1.20330000
C        0.81980000      -2.22580000       1.22230000
C        1.39810000      -2.22920000      -0.21550000
N        0.19850000      -2.95690000      -0.63910000
C       -0.41740000      -2.93650000       0.60630000
O       -1.49310000      -3.31750000       0.97860000
H        0.80200000       1.90750000       0.37390000
H       -0.26920000       1.75020000      -1.02490000
H       -0.94400000       1.75080000       0.61180000
H       -0.84210000      -0.63460000      -0.28800000
H        2.19520000      -0.07130000      -0.63640000
H        1.11710000      -0.06710000       2.05220000
H        1.33020000      -2.70840000       2.05270000
H        2.34570000      -2.70860000      -0.46050000
H       -0.21750000      -3.08630000      -1.55120000
