16
Properties=species:S:1:pos:R:3 gdb_1134=T pbc="F F F"
C       -0.34410000       1.61850000      -0.05880000
C       -0.00300000       0.13890000      -0.07250000
C       -1.17080000      -0.75180000       0.31330000
C        0.85910000      -0.34930000      -1.26680000
C        1.92830000      -0.55770000      -0.21880000
N        3.11230000      -0.97350000      -0.23670000
O        1.14930000      -0.12160000       0.82840000
H        0.53310000       2.22300000      -0.30520000
H       -1.13040000       1.83480000      -0.78960000
H       -0.70360000       1.92070000       0.92960000
H       -1.99170000      -0.63440000      -0.40190000
H       -0.87120000      -1.80330000       0.32680000
H       -1.54340000      -0.48730000       1.30760000
H        0.51710000      -1.26150000      -1.75900000
H        1.09780000       0.40340000      -2.02040000
H        3.51630000      -0.96700000       0.70180000
