17
Properties=species:S:1:pos:R:3 gdb_86511=T pbc="F F F"
O        0.40210000       0.43510000      -0.81480000
C       -0.29640000      -0.37800000       0.09330000
C        0.15580000      -0.39800000       1.57980000
C       -1.35410000      -0.28000000       1.99760000
C       -1.64950000       0.20990000       0.53440000
C       -1.96900000      -1.54770000       2.32470000
C       -2.46970000      -2.62110000       2.57090000
C       -3.08070000      -3.88030000       2.90000000
O       -2.99310000      -4.88480000       2.22960000
H        1.16950000      -0.04850000      -1.13570000
H       -0.41830000      -1.39950000      -0.28980000
H        0.71190000      -1.26060000       1.94960000
H        0.68760000       0.52470000       1.82460000
H       -1.56200000       0.45250000       2.78110000
H       -1.61490000       1.30110000       0.48900000
H       -2.55710000      -0.15300000       0.05160000
H       -3.66000000      -3.86920000       3.84620000
