15
Properties=species:S:1:pos:R:3 gdb_5698=T pbc="F F F"
C        0.06590000       1.35950000      -0.18280000
C        1.49780000       1.87060000       0.20390000
C        2.09150000       0.55400000       0.58560000
C        1.12000000      -0.39500000       0.71100000
O       -0.13790000       0.04670000       0.40040000
C        1.68360000      -1.59070000       1.21230000
C        3.02910000      -1.30510000       1.38700000
N        3.27010000       0.00130000       1.02350000
H       -0.73570000       2.01030000       0.17270000
H       -0.01250000       1.26140000      -1.27230000
H        1.96650000       2.37720000      -0.64700000
H        1.46870000       2.58910000       1.03560000
H        1.19960000      -2.53070000       1.42140000
H        3.83490000      -1.94030000       1.71820000
H        4.17590000       0.43460000       1.01060000
