12
Properties=species:S:1:pos:R:3 gdb_20590=T pbc="F F F"
C        0.04910000       1.51820000       0.05610000
C       -0.02810000       0.03340000       0.08800000
C       -1.08490000      -0.84490000      -0.02290000
C       -2.50930000      -0.58010000      -0.21330000
O       -3.36630000      -1.42550000      -0.29950000
N       -0.54510000      -2.11570000       0.08220000
N        0.67920000      -2.09150000       0.23870000
O        1.08590000      -0.64480000       0.25010000
H        0.70170000       1.84390000      -0.75970000
H       -0.93810000       1.96040000      -0.08300000
H        0.47700000       1.89320000       0.99080000
H       -2.75520000       0.50310000      -0.27550000
