13
Properties=species:S:1:pos:R:3 gdb_132129=T pbc="F F F"
O       -0.06100000       1.42770000       0.01120000
C        0.00920000       0.06230000       0.00320000
C        1.17150000      -0.63960000      -0.00710000
F        2.36150000      -0.03720000      -0.01040000
N        1.19880000      -1.99670000      -0.01480000
C        0.05390000      -2.83050000      -0.01300000
O        0.18190000      -4.04230000      -0.02040000
C       -1.17890000      -2.06510000      -0.00190000
C       -1.18890000      -0.70270000       0.00570000
H        0.83470000       1.78340000       0.00760000
H        2.09290000      -2.46900000      -0.02240000
H       -2.09640000      -2.63870000       0.00010000
H       -2.12480000      -0.15320000       0.01390000
