15
Properties=species:S:1:pos:R:3 gdb_9437=T pbc="F F F"
C       -0.28790000       1.58960000       0.13530000
C        0.01110000       0.09500000      -0.02220000
C        0.88270000      -0.36080000      -1.25320000
C        1.89740000      -1.07580000      -0.31300000
C        1.19290000      -0.42980000       0.88010000
O        1.45620000      -0.24940000       2.02690000
C       -1.18500000      -0.71850000       0.14470000
N       -2.12520000      -1.37980000       0.27610000
H        0.63170000       2.16910000       0.01550000
H       -1.01180000       1.92220000      -0.61340000
H       -0.69440000       1.79150000       1.12920000
H        0.37060000      -0.99640000      -1.97390000
H        1.30990000       0.50040000      -1.76990000
H        1.78130000      -2.16440000      -0.29770000
H        2.95890000      -0.84230000      -0.42080000
