12
Properties=species:S:1:pos:R:3 gdb_132249=T pbc="F F F"
F        0.00700000       0.02480000       0.00310000
C       -0.02140000       1.35430000       0.01050000
C       -1.23330000       2.01910000       0.03060000
C       -1.19550000       3.41760000       0.03740000
C        0.05200000       4.05930000       0.02370000
N        1.20740000       3.40040000       0.00450000
C        1.17360000       2.06790000      -0.00210000
C       -2.40230000       4.18300000       0.05790000
N       -3.37580000       4.80860000       0.07450000
H       -2.16790000       1.47200000       0.04050000
H        0.10190000       5.14370000       0.02880000
H        2.12010000       1.53460000      -0.01780000
