19
Properties=species:S:1:pos:R:3 gdb_116598=T pbc="F F F"
C       -0.37570000       1.53500000      -0.02860000
C        0.47400000       0.27750000       0.13780000
N        1.17800000      -0.02560000      -1.10180000
C        2.08210000      -0.90780000      -1.08930000
O        2.45110000      -1.62010000       0.04970000
C        3.50420000      -2.51330000      -0.27660000
C        3.74790000      -2.31500000      -1.75300000
N        4.75820000      -2.99470000      -2.38760000
C        2.90360000      -1.36820000      -2.19890000
H        0.25360000       2.39500000      -0.27820000
H       -1.09860000       1.40570000      -0.83980000
H       -0.92290000       1.76300000       0.89220000
H        1.17780000       0.40560000       0.97330000
H       -0.17110000      -0.56900000       0.41870000
H        4.39590000      -2.27730000       0.32050000
H        3.20140000      -3.54360000      -0.03800000
H        4.99890000      -3.89990000      -2.01240000
H        4.74170000      -2.98200000      -3.39630000
H        2.80670000      -0.97190000      -3.19790000
