17
Properties=species:S:1:pos:R:3 gdb_26684=T pbc="F F F"
C       -0.16770000       1.58070000       0.08590000
C       -0.02110000       0.09460000       0.03610000
C        0.07490000      -0.68490000      -1.07500000
N        0.06180000      -0.34560000      -2.43030000
O        0.19030000      -2.01530000      -0.71860000
C        0.16490000      -2.04960000       0.64570000
O        0.33740000      -3.24470000       1.25640000
C        0.03110000      -0.80270000       1.16670000
N       -0.12140000      -0.44070000       2.51940000
H        0.67800000       2.05740000       0.59850000
H       -0.21860000       1.98760000      -0.92640000
H       -1.07430000       1.87430000       0.62770000
H        0.88300000      -0.69000000      -2.91870000
H       -0.75550000      -0.70840000      -2.91270000
H       -0.39480000      -3.83300000       1.03280000
H        0.08160000      -1.22600000       3.12730000
H        0.48890000       0.32710000       2.77750000
