19
Properties=species:S:1:pos:R:3 gdb_62397=T pbc="F F F"
O       -0.03300000       1.36790000      -0.08570000
C        0.03670000      -0.05010000      -0.04520000
C        0.97350000      -0.53670000      -1.05040000
C        1.77780000      -0.90500000      -1.86620000
C        0.11250000      -0.64540000       1.41310000
C       -1.38520000      -0.23830000       1.53470000
C       -1.41170000      -0.63860000       0.02910000
C       -1.14960000      -2.15280000       0.09800000
C        0.01400000      -2.15830000       1.15210000
H        0.86850000       1.70320000      -0.03610000
H        2.47760000      -1.23170000      -2.59540000
H        0.87410000      -0.29160000       2.10950000
H       -2.00610000      -0.82540000       2.21630000
H       -1.52840000       0.82740000       1.69520000
H       -2.17300000      -0.27440000      -0.66010000
H       -2.03340000      -2.69720000       0.44040000
H       -0.84210000      -2.57020000      -0.86350000
H        0.93880000      -2.57590000       0.74780000
H       -0.24080000      -2.70940000       2.06140000
