21
Properties=species:S:1:pos:R:3 gdb_59369=T pbc="F F F"
C        0.25080000       1.35500000       0.21970000
C       -0.06640000      -0.13780000       0.24960000
O        0.30690000      -0.61230000       1.52710000
C       -1.55030000      -0.44210000      -0.09990000
C       -1.85320000      -1.95980000      -0.24330000
C       -2.48230000      -2.38350000       1.09330000
O       -1.42220000      -2.89810000       1.93450000
C       -3.03950000      -1.08270000       1.62570000
C       -2.51700000      -0.03430000       0.98970000
H        1.30260000       1.51240000       0.47310000
H        0.06550000       1.77860000      -0.77240000
H       -0.35350000       1.89710000       0.95360000
H        0.53800000      -0.63130000      -0.53350000
H       -0.09490000      -1.48270000       1.67960000
H       -1.76330000       0.07870000      -1.04160000
H       -2.58090000      -2.11500000      -1.04480000
H       -0.97100000      -2.56410000      -0.47240000
H       -3.23740000      -3.17070000       0.97450000
H       -1.71600000      -2.85010000       2.85100000
H       -3.73040000      -1.03940000       2.46140000
H       -2.71920000       1.00270000       1.23400000
