13
Properties=species:S:1:pos:R:3 gdb_20999=T pbc="F F F"
C       -0.00330000       1.42450000       0.06630000
N        0.03270000      -0.02230000      -0.01980000
C       -0.10330000      -0.78950000      -1.11790000
C        0.00300000      -2.10930000      -0.69720000
C        0.20610000      -2.01170000       0.70320000
N        0.22260000      -0.75000000       1.10350000
C       -0.07510000      -3.27480000      -1.49390000
N       -0.13800000      -4.23450000      -2.13960000
H        0.94250000       1.79710000       0.46630000
H       -0.16400000       1.83420000      -0.93160000
H       -0.81630000       1.73790000       0.72520000
H       -0.26190000      -0.37210000      -2.09890000
H        0.33740000      -2.81570000       1.41110000
