20
Properties=species:S:1:pos:R:3 gdb_50580=T pbc="F F F"
O       -0.10970000      -0.03060000      -0.00970000
C       -0.01950000       1.16920000       0.01800000
C        1.27380000       1.95190000      -0.01340000
C        1.35110000       2.81280000      -1.28860000
C        2.71130000       3.52730000      -1.34840000
N        3.13120000       4.23640000      -0.14170000
C        2.23310000       5.21130000       0.45990000
C        2.48670000       3.90420000       1.13570000
C        1.37080000       2.86170000       1.23160000
H       -0.93290000       1.81180000       0.06410000
H        2.09470000       1.22630000      -0.01850000
H        1.24130000       2.18860000      -2.18190000
H        0.52200000       3.53260000      -1.30250000
H        3.48290000       2.77500000      -1.55580000
H        2.73060000       4.24000000      -2.18010000
H        2.70530000       6.12500000       0.81260000
H        1.24240000       5.35680000       0.03040000
H        3.18570000       3.89190000       1.96910000
H        0.40490000       3.36350000       1.37650000
H        1.53220000       2.24410000       2.11990000
