19
Properties=species:S:1:pos:R:3 gdb_72345=T pbc="F F F"
C        0.01110000       1.49300000      -0.01630000
C       -0.02980000      -0.01400000       0.06270000
C       -1.36150000      -0.72650000      -0.21090000
C       -1.35630000      -1.90200000       0.74110000
C       -0.25700000      -1.92680000       1.49740000
C        0.66090000      -0.80650000       1.15450000
C        1.23730000      -0.79700000      -0.27450000
C        1.23280000      -1.94400000      -1.13010000
C        1.23170000      -2.88860000      -1.87600000
H        0.99420000       1.88230000       0.26680000
H       -0.20450000       1.84360000      -1.03240000
H       -0.73140000       1.94070000       0.65440000
H       -2.20910000      -0.05300000      -0.02340000
H       -1.44450000      -1.05160000      -1.25590000
H       -2.14890000      -2.64110000       0.75780000
H       -0.01610000      -2.67670000       2.24130000
H        1.26540000      -0.33020000       1.91970000
H        2.11780000      -0.16760000      -0.38330000
H        1.23790000      -3.72890000      -2.52460000
