17
Properties=species:S:1:pos:R:3 gdb_79665=T pbc="F F F"
O       -0.05340000       1.49010000      -0.14970000
C       -0.11620000       0.10290000       0.02080000
C       -0.47720000      -0.65300000       1.26150000
C       -1.67900000      -0.13760000       2.08580000
C       -2.31830000       1.13440000       1.58160000
C       -2.56850000      -0.16190000       0.86230000
C       -1.39470000      -0.68680000      -0.02310000
C       -1.59280000      -1.74740000      -0.94730000
C       -1.78720000      -2.64790000      -1.72370000
H        0.69240000       1.81240000       0.36930000
H        0.65730000      -0.42750000      -0.53980000
H        0.14690000      -1.46460000       1.61600000
H       -1.89250000      -0.54180000       3.06610000
H       -3.16320000       1.45310000       2.18680000
H       -1.74670000       1.93160000       1.13250000
H       -3.55090000      -0.60210000       0.76050000
H       -1.95160000      -3.43760000      -2.41360000
