14
Properties=species:S:1:pos:R:3 gdb_79386=T pbc="F F F"
O       -0.04300000       1.51360000      -0.03640000
C        0.07290000       0.11420000      -0.03590000
C        0.08100000      -0.59820000       1.33660000
C       -1.45980000      -0.39000000       1.50890000
O       -1.74030000      -1.79890000       1.78480000
C       -0.71180000      -1.82070000       0.75740000
C       -0.21120000      -3.07060000       0.25270000
N        0.21260000      -4.05900000      -0.17130000
C       -1.28710000      -0.59390000      -0.03210000
H        0.83790000       1.89690000       0.01920000
H        0.80300000      -0.24670000      -0.77060000
H        0.83400000      -0.64160000       2.12220000
H       -2.00930000       0.36810000       2.05770000
H       -2.06930000      -0.62590000      -0.78800000
