11
Properties=species:S:1:pos:R:3 gdb_3213=T pbc="F F F"
O       -0.07260000       1.45960000       0.16700000
C       -0.01500000       0.07490000       0.00420000
C       -1.35500000      -0.66230000       0.01020000
O       -2.05820000      -0.27040000      -1.15950000
C       -1.08780000      -1.33450000      -1.29030000
C        0.22760000      -0.57280000      -1.40940000
O        1.12890000      -0.52660000      -2.19050000
H        0.73120000       1.83690000      -0.20730000
H        0.69380000      -0.40810000       0.70130000
H       -1.92640000      -1.03620000       0.85040000
H       -1.42540000      -2.28590000      -1.68180000
