18
Properties=species:S:1:pos:R:3 gdb_125652=T pbc="F F F"
C        0.01530000       1.50040000      -0.06040000
C       -0.00760000       0.00980000       0.04820000
N       -0.02910000      -0.75800000      -1.05050000
N       -0.03820000      -2.04080000      -0.60750000
C       -0.02960000      -2.10490000       0.74290000
C       -0.00310000      -0.81320000       1.19620000
N       -0.02310000      -0.71340000       2.61460000
C       -0.25100000      -2.12030000       3.06490000
C        0.02740000      -3.09710000       1.86110000
H        0.96290000       1.92000000       0.29810000
H       -0.11510000       1.79910000      -1.10270000
H       -0.78320000       1.95250000       0.53780000
H       -0.10510000      -2.78130000      -1.28340000
H        0.85600000      -0.35730000       2.97770000
H        0.35840000      -2.34780000       3.94270000
H       -1.30230000      -2.21680000       3.35660000
H       -0.72890000      -3.88670000       1.81970000
H        1.00790000      -3.58860000       1.92920000
