15
Properties=species:S:1:pos:R:3 gdb_42248=T pbc="F F F"
O        0.07840000      -0.05630000      -0.50240000
C       -0.00680000       1.11470000      -0.19300000
C        1.16840000       1.90350000       0.13640000
C        2.13630000       2.56830000       0.40180000
C       -1.30450000       1.84520000      -0.10990000
C       -2.51060000       1.24070000      -0.78090000
C       -2.45480000       1.22150000       0.72170000
C       -2.28090000       0.00320000       1.45290000
C       -2.16510000      -1.00560000       2.09610000
H        3.00270000       3.13790000       0.63580000
H       -1.23080000       2.92410000      -0.04290000
H       -3.21490000       1.91230000      -1.25740000
H       -2.33250000       0.29630000      -1.28130000
H       -3.05780000       1.96910000       1.22920000
H       -2.05120000      -1.90530000       2.64830000
