20
Properties=species:S:1:pos:R:3 gdb_111338=T pbc="F F F"
C        0.27560000       1.30610000       0.20110000
O       -0.23630000       0.05500000      -0.19650000
C        0.52780000      -0.56700000      -1.18680000
C        1.91690000      -1.15160000      -0.84270000
N        1.72090000      -2.22310000       0.16560000
C        1.46560000      -2.50920000      -1.26840000
C        0.07130000      -1.99420000      -1.55400000
C       -1.24260000      -2.62750000      -1.23280000
C       -0.85320000      -2.36980000      -2.67210000
H        1.27600000       1.21530000       0.64910000
H        0.33800000       2.00900000      -0.64560000
H       -0.40790000       1.71460000       0.94910000
H        0.60760000       0.07570000      -2.08000000
H        2.88190000      -0.67760000      -0.97380000
H        2.65120000      -2.58480000       0.37950000
H        2.01420000      -3.27720000      -1.80000000
H       -1.24140000      -3.65030000      -0.87150000
H       -1.99460000      -1.98830000      -0.78380000
H       -1.35500000      -1.57010000      -3.20830000
H       -0.58590000      -3.22080000      -3.29090000
