18
Properties=species:S:1:pos:R:3 gdb_63099=T pbc="F F F"
C       -0.07600000       1.57400000       0.09330000
C        0.03630000       0.07190000      -0.02390000
O       -1.08370000      -0.62380000       0.45570000
C        0.65370000      -0.63500000      -1.18670000
C        1.58680000       0.14960000      -2.08980000
O        2.63910000       0.66260000      -1.25220000
C        2.61500000       0.08050000      -0.00520000
N        3.53690000       0.19570000       0.85100000
C        1.35510000      -0.68410000       0.16240000
H        0.79490000       2.08890000      -0.31640000
H       -0.97140000       1.92140000      -0.43170000
H       -0.16570000       1.86630000       1.14620000
H       -1.16680000      -0.43700000       1.39790000
H        0.13590000      -1.49820000      -1.58560000
H        2.02920000      -0.50000000      -2.85390000
H        1.11250000       1.00080000      -2.58880000
H        4.31190000       0.73930000       0.46740000
H        1.35620000      -1.55260000       0.80610000
