18
Properties=species:S:1:pos:R:3 gdb_80254=T pbc="F F F"
C       -0.14410000       1.54610000      -0.02130000
C        0.04080000       0.03390000       0.00880000
C        1.10420000      -0.57510000      -0.95380000
N        2.32240000       0.02420000      -0.36000000
C        2.21210000      -0.06970000       1.01880000
O        3.06590000       0.16220000       1.84030000
C        0.76560000      -0.58770000       1.24590000
C        0.83950000      -2.04890000       0.79110000
C        1.02780000      -2.05050000      -0.53120000
H        0.80300000       2.08030000       0.08080000
H       -0.60900000       1.85560000      -0.96360000
H       -0.80550000       1.86460000       0.79120000
H       -0.92010000      -0.46500000      -0.13860000
H        1.01500000      -0.34480000      -2.01480000
H        3.22970000      -0.10210000      -0.78220000
H        0.38060000      -0.39140000       2.24390000
H        0.80900000      -2.89370000       1.46570000
H        1.17470000      -2.89850000      -1.18660000
