17
Properties=species:S:1:pos:R:3 gdb_18968=T pbc="F F F"
O       -0.05870000       1.45190000      -0.31080000
C        0.06020000       0.10210000       0.11970000
C       -1.31970000      -0.51460000       0.06430000
C       -1.93170000      -0.86680000      -1.29780000
C       -1.11280000      -2.18460000      -1.47280000
C       -2.41540000      -2.94320000      -1.68940000
N       -2.86120000      -1.92780000      -0.64200000
C       -1.46970000      -2.04200000       0.04040000
H        0.80550000       1.86790000      -0.24100000
H        0.75540000      -0.46080000      -0.52370000
H        0.44880000       0.04380000       1.14930000
H       -2.01390000      -0.00460000       0.74020000
H       -2.31270000      -0.21020000      -2.08120000
H       -0.12760000      -2.32020000      -1.93100000
H       -2.92760000      -2.82970000      -2.65070000
H       -2.47530000      -3.98100000      -1.34390000
H       -1.30810000      -2.77510000       0.83390000
