16
Properties=species:S:1:pos:R:3 gdb_72054=T pbc="F F F"
C       -0.04360000       1.40400000      -0.06450000
C        0.00340000      -0.08110000       0.02060000
O        0.95690000      -0.80110000      -0.75970000
C        0.19720000      -2.00520000      -0.47730000
C        0.44400000      -2.24600000       1.03180000
C       -0.33460000      -0.94570000       1.23720000
C       -1.07290000      -1.13870000      -0.10640000
C       -2.43540000      -1.12520000      -0.46940000
N       -3.55350000      -1.11370000      -0.77430000
H        0.87960000       1.83640000       0.33480000
H       -0.15930000       1.72790000      -1.10230000
H       -0.88460000       1.79040000       0.51780000
H        0.28010000      -2.77040000      -1.24420000
H       -0.11180000      -3.10870000       1.40540000
H        1.49040000      -2.28630000       1.34630000
H       -0.75550000      -0.53490000       2.14570000
