19
Properties=species:S:1:pos:R:3 gdb_115188=T pbc="F F F"
C       -0.02130000       1.61350000      -0.18890000
C       -0.01360000       0.08840000      -0.05210000
C       -1.41310000      -0.53190000       0.12710000
C       -1.35070000      -2.05070000      -0.02940000
O       -2.59590000      -2.70260000       0.25340000
C       -3.24970000      -2.37280000       1.40030000
O       -4.15850000      -3.06050000       1.78720000
C       -2.83050000      -1.11860000       2.06800000
C       -2.03160000      -0.23360000       1.46740000
H        0.99440000       1.99570000      -0.32580000
H       -0.61620000       1.92880000      -1.05270000
H       -0.43770000       2.10430000       0.69660000
H        0.44470000      -0.34820000      -0.94850000
H        0.62120000      -0.20940000       0.79200000
H       -2.06920000      -0.12300000      -0.65740000
H       -1.10210000      -2.33740000      -1.05390000
H       -0.57760000      -2.45610000       0.63830000
H       -3.29650000      -0.93680000       3.02910000
H       -1.82040000       0.72290000       1.93860000
