23
Properties=species:S:1:pos:R:3 gdb_99842=T pbc="F F F"
C       -0.07930000       1.56950000       0.07050000
C       -0.01570000       0.03630000       0.00610000
C       -1.42540000      -0.55650000       0.14560000
C        0.73640000      -0.48140000      -1.27290000
C        2.20630000       0.00490000      -1.27870000
C        0.73810000      -2.02990000      -1.31740000
O        1.29860000      -2.51250000      -0.10550000
C        0.06620000      -0.02260000      -2.49390000
C       -0.47640000       0.33500000      -3.50640000
H        0.91210000       2.02920000       0.08820000
H       -0.62560000       1.97730000      -0.78640000
H       -0.60030000       1.88350000       0.98060000
H        0.58130000      -0.32070000       0.85200000
H       -2.03620000      -0.34140000      -0.73800000
H       -1.39770000      -1.63880000       0.29350000
H       -1.93040000      -0.12130000       1.01380000
H        2.71590000      -0.35070000      -0.37980000
H        2.73100000      -0.39140000      -2.15300000
H        2.26970000       1.09320000      -1.31970000
H       -0.28590000      -2.39810000      -1.45990000
H        1.32980000      -2.35120000      -2.18710000
H        1.33790000      -3.47170000      -0.15320000
H       -0.95390000       0.65840000      -4.39810000
