16
Properties=species:S:1:pos:R:3 gdb_112384=T pbc="F F F"
C       -0.03220000       1.41630000       0.08870000
O       -0.01050000       0.01470000      -0.14700000
C       -1.25730000      -0.61870000      -0.01900000
C       -1.19520000      -2.03260000      -0.61060000
C       -1.78160000      -2.95740000       0.45060000
O       -2.02710000      -4.13140000       0.36390000
N       -1.98080000      -2.18180000       1.59260000
C       -1.66230000      -0.83910000       1.45870000
O       -1.70110000      -0.01810000       2.34060000
H        0.98060000       1.77670000      -0.10340000
H       -0.72760000       1.91890000      -0.60100000
H       -0.32030000       1.64980000       1.11780000
H       -2.05030000      -0.01550000      -0.48990000
H       -1.73050000      -2.15280000      -1.55360000
H       -0.15050000      -2.30990000      -0.78000000
H       -2.30880000      -2.57940000       2.46250000
