18
Properties=species:S:1:pos:R:3 gdb_41269=T pbc="F F F"
C        0.02380000       1.47540000       0.16010000
O        1.41540000       1.61630000      -0.28420000
C        1.37190000       0.27810000      -0.74170000
C        2.43940000      -0.78080000      -0.98070000
C        1.40060000      -1.49070000      -1.92400000
C        0.13580000      -2.07990000      -1.24730000
N       -0.55510000      -0.73390000      -1.14350000
C        0.09950000      -0.06950000       0.02440000
C        0.58100000      -0.17230000      -2.01890000
H       -0.10940000       1.87270000       1.16950000
H       -0.67420000       1.95930000      -0.53240000
H        3.27580000      -0.40660000      -1.58100000
H        2.82890000      -1.31880000      -0.11160000
H        1.80450000      -2.02210000      -2.78420000
H       -0.42500000      -2.71590000      -1.93810000
H        0.24870000      -2.61000000      -0.29480000
H        0.07150000      -0.62470000       0.96490000
H        0.36840000       0.41100000      -2.91200000
