23
Properties=species:S:1:pos:R:3 gdb_96453=T pbc="F F F"
C       -0.17600000       1.54010000      -0.04000000
C       -0.00850000       0.01720000       0.00400000
O        0.47840000      -0.54150000      -1.22200000
C        1.66180000      -0.00640000      -1.78880000
C        2.97220000      -0.34950000      -1.06810000
C        3.09970000       0.26850000       0.33310000
C        2.24540000      -0.44890000       1.36330000
C        1.34650000       0.28720000       2.32260000
C        0.74490000      -0.54630000       1.21140000
H        0.76610000       2.09310000      -0.01480000
H       -0.71090000       1.82280000      -0.95170000
H       -0.77010000       1.86390000       0.81930000
H       -1.02310000      -0.39450000       0.05770000
H        1.69310000      -0.42380000      -2.80150000
H        1.58580000       1.08630000      -1.89930000
H        3.07200000      -1.44010000      -1.00370000
H        3.79190000       0.00690000      -1.70660000
H        4.14650000       0.23870000       0.65900000
H        2.83700000       1.33230000       0.28360000
H        2.71140000      -1.35190000       1.75030000
H        1.25170000      -0.06960000       3.34280000
H        1.30450000       1.36760000       2.23100000
H        0.33650000      -1.50090000       1.53090000
