15
Properties=species:S:1:pos:R:3 gdb_12400=T pbc="F F F"
N       -0.12440000       1.48870000       0.02600000
C       -0.04120000       0.03970000      -0.05540000
C       -1.43070000      -0.59660000       0.00920000
O       -1.30570000      -1.99830000      -0.18610000
C       -0.83740000      -2.27610000      -1.45700000
O        0.45270000      -1.70890000      -1.74120000
C        0.76370000      -0.47770000      -1.26330000
O        1.68220000       0.13490000      -1.73450000
H        0.81780000       1.86720000      -0.01990000
H       -0.59290000       1.84740000      -0.80310000
H        0.51660000      -0.31960000       0.82030000
H       -1.88790000      -0.43800000       0.98670000
H       -2.09330000      -0.16100000      -0.75780000
H       -0.71380000      -3.35640000      -1.54340000
H       -1.53190000      -1.90570000      -2.22820000
