22
Properties=species:S:1:pos:R:3 gdb_120328=T pbc="F F F"
C       -0.78970000       1.41420000      -1.17070000
O       -0.66100000       0.01880000      -1.05320000
C        0.61320000      -0.44760000      -1.44810000
C        0.59710000      -1.95840000      -1.27580000
C        1.08800000      -2.94390000      -2.27690000
C        1.99430000      -2.47230000      -3.40530000
C        3.12510000      -1.68330000      -2.70150000
C        3.09170000      -2.19950000      -1.24080000
N        1.77290000      -2.79870000      -0.97440000
H       -0.05990000       1.94790000      -0.54070000
H       -0.65430000       1.75320000      -2.21050000
H       -1.79810000       1.67810000      -0.84270000
H        0.81390000      -0.14600000      -2.48870000
H        1.39510000       0.01540000      -0.82040000
H       -0.26360000      -2.24910000      -0.67770000
H        0.53250000      -3.86580000      -2.43090000
H        2.39500000      -3.34780000      -3.92690000
H        1.46680000      -1.87080000      -4.15310000
H        4.09780000      -1.85100000      -3.17100000
H        2.93850000      -0.60740000      -2.74260000
H        3.82960000      -2.99600000      -1.09650000
H        3.31620000      -1.41830000      -0.50730000
