14
Properties=species:S:1:pos:R:3 gdb_132440=T pbc="F F F"
C        0.08250000       1.47560000       0.02860000
C        0.00250000      -0.01910000      -0.01650000
N       -0.12520000      -0.63730000      -1.14220000
C       -0.19680000      -2.02010000      -1.15610000
C       -0.13350000      -2.70440000      -0.00580000
F       -0.19040000      -4.01020000       0.10730000
O       -0.00190000      -2.12700000       1.19020000
C        0.07660000      -0.73020000       1.27450000
N        0.20140000      -0.15430000       2.39340000
H        1.01860000       1.79670000       0.49720000
H        0.01610000       1.87390000      -0.98420000
H       -0.72320000       1.88540000       0.64640000
H       -0.30370000      -2.52340000      -2.10640000
H        0.23290000      -0.82430000       3.16200000
