20
Properties=species:S:1:pos:R:3 gdb_103242=T pbc="F F F"
C        0.17700000       1.32070000      -0.19970000
O       -0.27630000       0.04390000       0.22000000
C        0.56130000      -0.58890000       1.15030000
C        0.47640000       0.03630000       2.53800000
C        0.72400000      -2.07710000       1.19820000
C        1.00920000      -2.78200000      -0.13780000
C        1.03760000      -1.93310000      -1.34450000
N        2.20780000      -1.92230000      -0.42560000
C        1.92260000      -1.17420000       0.85810000
H        1.20360000       1.27520000      -0.58810000
H       -0.49490000       1.64550000      -0.99760000
H        0.13960000       2.06160000       0.60970000
H       -0.56450000       0.03950000       2.87540000
H        1.07410000      -0.52150000       3.26330000
H        0.83920000       1.06850000       2.53430000
H        0.52220000      -2.63550000       2.10430000
H        1.09580000      -3.86350000      -0.17940000
H        1.29330000      -2.43910000      -2.27210000
H        0.38530000      -1.08030000      -1.43890000
H        2.79530000      -0.91520000       1.44750000
