16
Properties=species:S:1:pos:R:3 gdb_71113=T pbc="F F F"
O        0.04690000       1.38190000      -0.02460000
C        0.00100000       0.00180000      -0.08320000
C       -1.36690000      -0.72780000      -0.00710000
C       -0.79160000      -2.14260000      -0.03760000
C        0.54230000      -2.14280000       0.67160000
N        0.45130000      -2.15590000      -0.82300000
C        0.65770000      -0.73990000      -1.26260000
C        0.73510000      -0.71820000       1.06590000
O        1.28300000      -0.17940000       1.99200000
H        0.51840000       1.60180000       0.79420000
H       -1.90890000      -0.50160000       0.91520000
H       -2.01150000      -0.51050000      -0.86380000
H       -1.40630000      -3.03450000      -0.07210000
H        0.97970000      -2.99490000       1.17350000
H        0.16080000      -0.57670000      -2.22250000
H        1.72580000      -0.52910000      -1.36510000
