25
Properties=species:S:1:pos:R:3 gdb_121238=T pbc="F F F"
C        0.34440000       1.38840000      -0.19880000
C        0.01400000       0.00060000       0.32450000
O       -1.06360000      -0.51980000      -0.43020000
C       -1.44550000      -1.81540000      -0.05560000
C       -2.24570000      -2.02580000       1.26060000
C       -3.16160000      -3.00880000       0.47960000
C       -2.63380000      -2.40790000      -0.86050000
C       -3.55610000      -1.36660000      -1.49870000
C       -4.75560000      -1.99990000      -2.21000000
H        1.17850000       1.82060000       0.36220000
H        0.62190000       1.34300000      -1.25580000
H       -0.52050000       2.05060000      -0.10090000
H        0.89000000      -0.66500000       0.23870000
H       -0.25150000       0.04530000       1.39310000
H       -0.57350000      -2.48920000      -0.08750000
H       -1.71160000      -2.40810000       2.13360000
H       -2.77360000      -1.10990000       1.54110000
H       -2.86520000      -4.05180000       0.61720000
H       -4.23640000      -2.93100000       0.66120000
H       -2.34360000      -3.14160000      -1.62020000
H       -3.90770000      -0.66270000      -0.73430000
H       -2.97460000      -0.76850000      -2.20850000
H       -5.40500000      -1.23580000      -2.64880000
H       -4.42960000      -2.66400000      -3.01870000
H       -5.36480000      -2.59590000      -1.52160000
