21
Properties=species:S:1:pos:R:3 gdb_64375=T pbc="F F F"
C        0.10290000       1.67300000      -0.17340000
C       -0.01920000       0.15880000       0.01870000
O       -1.38030000      -0.22400000       0.15790000
C        0.73190000      -0.62760000      -1.09620000
C        2.08880000      -0.99430000      -0.44880000
O        2.09900000      -0.38370000       0.84720000
C        0.75890000      -0.29620000       1.25200000
C        0.48240000       0.12790000       2.64970000
C        0.21830000      -1.30970000       2.22510000
H        1.15470000       1.97190000      -0.18510000
H       -0.34680000       1.98280000      -1.12520000
H       -0.39980000       2.20510000       0.63910000
H       -1.89250000       0.24940000      -0.50490000
H        0.15190000      -1.51980000      -1.34130000
H        0.85160000      -0.03650000      -2.00810000
H        2.19880000      -2.08310000      -0.35250000
H        2.95340000      -0.60990000      -0.99600000
H        1.33780000       0.31970000       3.28750000
H       -0.37560000       0.76840000       2.82490000
H       -0.81120000      -1.62790000       2.11830000
H        0.91500000      -2.06330000       2.57510000
