19
Properties=species:S:1:pos:R:3 gdb_104493=T pbc="F F F"
C        0.14690000       1.15990000      -0.26340000
O       -0.00030000      -0.16010000       0.25180000
C       -1.27720000      -0.68100000       0.15220000
C       -2.33370000      -0.06710000       1.00290000
O       -2.17420000       0.87990000       1.73220000
C       -1.81700000      -1.25030000      -1.15930000
C       -0.65370000      -1.80100000      -1.99660000
C       -0.26850000      -2.74490000      -0.81480000
C       -1.44030000      -2.17680000      -0.00500000
H        1.21660000       1.37950000      -0.24620000
H       -0.21510000       1.22430000      -1.29880000
H       -0.38710000       1.88730000       0.35410000
H       -3.32640000      -0.56750000       0.91000000
H       -2.79620000      -0.97510000      -1.53430000
H       -1.00540000      -2.35250000      -2.87070000
H        0.09900000      -1.07580000      -2.31330000
H       -0.41240000      -3.79870000      -1.06060000
H        0.71990000      -2.60410000      -0.37470000
H       -2.07710000      -2.73850000       0.66920000
