17
Properties=species:S:1:pos:R:3 gdb_58009=T pbc="F F F"
C        0.08260000       1.56420000       0.00430000
C        0.10870000       0.02450000       0.05140000
O        0.90840000      -0.49070000      -0.97830000
C        0.62590000      -0.46930000       1.40100000
O        1.70610000      -1.00870000       1.48100000
C       -0.26640000      -0.30880000       2.62840000
O        0.45830000      -0.40080000       3.83810000
C        0.87190000      -1.63640000       4.21870000
O        1.54810000      -1.80620000       5.18370000
H        1.07760000       1.96940000       0.20990000
H       -0.21180000       1.87170000      -1.00160000
H       -0.63020000       1.99030000       0.71690000
H       -0.92240000      -0.34600000      -0.07140000
H        1.68970000      -0.86850000      -0.54550000
H       -0.76330000       0.66330000       2.63230000
H       -1.05440000      -1.07550000       2.56550000
H        0.48940000      -2.44000000       3.56310000
