9
Properties=species:S:1:pos:R:3 gdb_128884=T pbc="F F F"
N        0.07440000      -1.12300000      -0.00500000
C       -0.00350000       0.02950000       0.00270000
C       -0.08740000       1.44810000       0.01200000
N       -1.15440000       2.18680000       0.03050000
C       -0.60750000       3.44710000       0.03050000
N        0.70860000       3.48020000       0.01330000
O        1.06180000       2.15020000       0.00090000
C       -1.38720000       4.64080000       0.04780000
N       -2.02600000       5.60270000       0.06180000
