15
Properties=species:S:1:pos:R:3 gdb_132988=T pbc="F F F"
C       -0.01360000       1.45060000       0.00800000
N        0.00600000      -0.00980000      -0.02830000
C       -0.10000000      -0.69050000      -1.20910000
C       -0.08270000      -2.04880000      -1.25180000
C        0.04930000      -2.76900000      -0.03360000
C        0.15430000      -2.09020000       1.13610000
F        0.27920000      -2.72750000       2.29570000
C        0.14020000      -0.63890000       1.22630000
O        0.23120000       0.01710000       2.25160000
H        0.91020000       1.82530000       0.45450000
H       -0.12010000       1.83160000      -1.00780000
H       -0.84370000       1.79740000       0.62780000
H       -0.19760000      -0.07760000      -2.09610000
H       -0.16820000      -2.56380000      -2.19840000
H        0.06780000      -3.85330000      -0.02120000
