17
Properties=species:S:1:pos:R:3 gdb_31272=T pbc="F F F"
C       -0.66820000       0.64270000       0.14190000
O        0.72700000       0.38280000      -0.09200000
C        0.98820000      -0.49000000      -1.08530000
C        0.78420000      -1.84270000      -1.23370000
C        0.10720000      -2.78560000      -0.29440000
O       -1.32360000      -2.67690000      -0.30340000
N        1.28460000      -2.24960000      -2.45730000
C        1.78800000      -1.17890000      -3.02140000
N        1.62730000      -0.07380000      -2.23230000
H       -1.08480000       1.25250000      -0.67000000
H       -1.22890000      -0.29280000       0.22050000
H       -0.72090000       1.20090000       1.07810000
H        0.42330000      -3.80730000      -0.54130000
H        0.39730000      -2.57850000       0.74010000
H       -1.60480000      -2.80210000      -1.21630000
H        2.28470000      -1.13660000      -3.97900000
H        1.94040000       0.86640000      -2.41060000
