20
Properties=species:S:1:pos:R:3 gdb_64349=T pbc="F F F"
C       -0.02480000       1.56400000       0.03900000
C       -0.00110000       0.03520000      -0.00640000
O       -1.33440000      -0.47570000      -0.11780000
C        0.73790000      -0.49310000      -1.24220000
C        0.74140000      -2.01600000      -1.24080000
O        1.25420000      -2.58390000      -0.02290000
C        0.85150000      -2.05670000       1.17010000
N        0.72920000      -2.76930000       2.20940000
C        0.68880000      -0.55520000       1.23370000
H        0.98690000       1.98210000       0.04460000
H       -0.56060000       1.95530000      -0.83040000
H       -0.53700000       1.91540000       0.94220000
H       -1.79030000      -0.31080000       0.71430000
H        0.24290000      -0.14020000      -2.15310000
H        1.76260000      -0.10640000      -1.24370000
H       -0.27770000      -2.38650000      -1.39290000
H        1.38130000      -2.41340000      -2.03200000
H        0.91470000      -3.74820000       1.97800000
H        1.68890000      -0.11250000       1.32820000
H        0.14440000      -0.31100000       2.15010000
