17
Properties=species:S:1:pos:R:3 gdb_10431=T pbc="F F F"
C       -1.62390000      -0.71450000      -0.15450000
N       -0.27260000      -0.15510000      -0.03250000
C        0.64740000      -0.61640000      -1.04540000
C        2.16730000      -0.53470000      -0.70010000
O        2.36350000      -1.91460000      -1.05600000
C        0.94250000      -2.13830000      -1.09960000
C        0.42070000      -0.02300000      -2.42770000
O       -0.34970000       0.87600000      -2.65110000
H       -2.10680000      -0.52470000      -1.12390000
H       -1.59020000      -1.79650000       0.00980000
H       -2.25150000      -0.28570000       0.63110000
H       -0.34610000       0.85540000      -0.11970000
H        2.79610000       0.13720000      -1.29520000
H        2.31860000      -0.34460000       0.36940000
H        0.57880000      -2.66340000      -0.20790000
H        0.63830000      -2.68350000      -2.00020000
H        1.05650000      -0.45770000      -3.23320000
