22
Properties=species:S:1:pos:R:3 gdb_100712=T pbc="F F F"
C       -0.08140000       1.54250000      -0.06550000
C        0.07320000       0.01810000      -0.02640000
C        0.95870000      -0.45440000      -1.19220000
O        0.42820000      -0.11810000      -2.46540000
C        0.62610000      -0.51210000       1.31630000
C       -0.16110000      -0.00860000       2.54090000
C        0.56470000      -2.04490000       1.33050000
N        1.69940000      -2.67580000       1.74990000
O       -0.44140000      -2.65780000       1.02260000
H        0.85440000       2.04280000       0.21440000
H       -0.33330000       1.85490000      -1.08200000
H       -0.86750000       1.89820000       0.60520000
H       -0.91210000      -0.44960000      -0.15750000
H        1.93530000       0.04380000      -1.14160000
H        1.13770000      -1.53680000      -1.11910000
H       -0.38560000      -0.61980000      -2.58040000
H        1.67150000      -0.18670000       1.41860000
H       -1.21280000      -0.29710000       2.45690000
H        0.23480000      -0.44540000       3.46340000
H       -0.10070000       1.07800000       2.63270000
H        2.54230000      -2.17870000       1.97500000
H        1.69710000      -3.68160000       1.80400000
