25
Properties=species:S:1:pos:R:3 gdb_116475=T pbc="F F F"
C       -0.12920000       1.54630000      -0.18120000
C        0.04260000       0.02600000      -0.10460000
C        0.70760000      -0.46450000       1.19600000
C        0.60350000      -2.00090000       1.33220000
C        0.80350000      -2.54340000       2.75550000
C        2.20100000      -2.37310000       3.36810000
C        2.63990000      -0.91220000       3.58880000
C        2.96900000      -0.16570000       2.31740000
C        2.14020000       0.02130000       1.29090000
H        0.82900000       2.07050000      -0.10860000
H       -0.59850000       1.84330000      -1.12440000
H       -0.76330000       1.90950000       0.63560000
H       -0.94170000      -0.44820000      -0.19880000
H        0.63350000      -0.32540000      -0.96180000
H        0.13910000      -0.03100000       2.03560000
H       -0.39500000      -2.30860000       0.99580000
H        1.32000000      -2.47290000       0.64730000
H        0.06740000      -2.06580000       3.41880000
H        0.55570000      -3.61220000       2.75440000
H        2.21300000      -2.88860000       4.33660000
H        2.94490000      -2.87770000       2.73830000
H        1.84550000      -0.38610000       4.14010000
H        3.51580000      -0.90160000       4.24580000
H        3.97770000       0.23430000       2.24020000
H        2.51860000       0.55940000       0.42340000
