15
Properties=species:S:1:pos:R:3 gdb_54738=T pbc="F F F"
N       -0.07880000       1.30930000       0.02510000
C       -0.00140000      -0.06480000      -0.02170000
O        0.92220000      -0.70740000       0.42950000
N       -1.11000000      -0.63660000      -0.68370000
C       -2.41450000      -0.69410000      -0.00580000
C       -3.47170000      -1.24540000      -1.03840000
O       -2.81690000      -1.49360000      -2.27850000
C       -2.66330000      -2.45110000      -1.23260000
C       -1.59390000      -1.91970000      -0.20400000
H        0.78920000       1.76970000       0.24960000
H       -0.65860000       1.76670000      -0.66080000
H       -2.60820000      -0.13290000       0.89840000
H       -4.54120000      -1.07510000      -1.04190000
H       -2.93150000      -3.48090000      -1.43210000
H       -1.01580000      -2.49070000       0.50830000
