17
Properties=species:S:1:pos:R:3 gdb_70671=T pbc="F F F"
O        0.39440000       0.98310000      -0.36950000
C       -0.01630000      -0.30510000      -0.07500000
C       -0.73130000      -1.17010000      -1.08360000
C       -1.45040000      -0.67530000       0.15760000
C       -1.44080000      -1.62430000       1.34400000
O       -0.08690000      -2.08790000       1.46000000
C        0.76350000      -1.05330000       1.00480000
C        2.06560000      -1.62730000       0.48940000
O        2.82860000      -0.96870000      -0.17550000
H        1.29020000       0.90640000      -0.72520000
H       -0.99050000      -0.67810000      -2.01390000
H       -0.48880000      -2.22530000      -1.16510000
H       -2.24230000       0.05740000       0.06390000
H       -1.74810000      -1.09700000       2.25960000
H       -2.07100000      -2.51040000       1.22190000
H        1.00580000      -0.32860000       1.80380000
H        2.26750000      -2.68770000       0.74940000
