16
Properties=species:S:1:pos:R:3 gdb_54003=T pbc="F F F"
C        0.16820000       1.36120000      -0.32040000
C       -0.02880000      -0.03830000       0.19690000
O        0.88120000      -0.75860000       0.54610000
C       -1.45870000      -0.56710000       0.28590000
N       -1.51420000      -1.86330000       0.69000000
N       -2.40620000       0.23250000      -0.05250000
C       -3.77530000      -0.26250000      -0.04650000
C       -4.23750000      -0.78590000       1.25090000
N       -4.54790000      -1.22330000       2.27560000
H        1.23360000       1.59120000      -0.33900000
H       -0.26550000       1.45830000      -1.31950000
H       -0.36770000       2.07340000       0.31350000
H       -0.63110000      -2.23570000       1.01270000
H       -2.35220000      -2.23300000       1.10980000
H       -4.44380000       0.55270000      -0.33960000
H       -3.90790000      -1.06720000      -0.78720000
