15
Properties=species:S:1:pos:R:3 gdb_15469=T pbc="F F F"
O        0.01960000       0.03270000      -0.29440000
C       -0.00350000       1.20610000      -0.05170000
C       -1.23120000       2.07640000       0.23580000
C       -0.63670000       3.46050000       0.55130000
N        0.67640000       3.52230000      -0.12800000
C        1.23520000       2.16460000      -0.02560000
C        1.96460000       1.96620000       1.22470000
C        2.52540000       1.77580000       2.27040000
H       -1.84870000       2.09670000      -0.67020000
H       -1.83580000       1.63130000       1.03020000
H       -1.26370000       4.29170000       0.22420000
H       -0.47040000       3.57130000       1.62800000
H        0.52910000       3.72660000      -1.11230000
H        1.88590000       1.94100000      -0.87640000
H        3.03920000       1.61480000       3.18590000
