21
Properties=species:S:1:pos:R:3 gdb_81585=T pbc="F F F"
C       -0.07570000       1.69660000      -0.06890000
C        0.00280000       0.18210000      -0.10470000
C        0.83190000      -0.61990000      -1.14240000
C        2.06510000      -0.16580000      -0.33500000
N        1.06920000      -0.52860000       0.78360000
C        0.77900000      -1.76820000      -0.10330000
C       -0.48750000      -2.53870000       0.21260000
C       -0.44380000      -3.60590000       1.24400000
N       -1.15350000      -2.34730000       1.51630000
H        0.85050000       2.20550000      -0.34310000
H       -0.85660000       2.03440000      -0.75890000
H       -0.35870000       2.02780000       0.93580000
H       -0.99090000      -0.22250000       0.09870000
H        0.70280000      -0.67970000      -2.22960000
H        2.94890000      -0.80960000      -0.35020000
H        2.35570000       0.88350000      -0.34880000
H        1.64660000      -2.43650000      -0.12380000
H       -1.18300000      -2.65660000      -0.61670000
H       -1.07840000      -4.48320000       1.15290000
H        0.50720000      -3.78320000       1.74160000
H       -0.55560000      -1.74430000       2.08070000
