17
Properties=species:S:1:pos:R:3 gdb_50906=T pbc="F F F"
N        0.13260000       1.06600000      -0.38280000
C        0.09320000      -0.12730000       0.01820000
O       -0.86430000      -0.95640000      -0.46040000
C       -0.84640000      -2.30960000       0.01650000
C       -1.23440000      -2.39920000       1.42490000
C       -1.55100000      -2.48500000       2.58060000
C       -1.78320000      -3.12000000      -0.87190000
C       -3.02140000      -2.52030000      -1.41510000
N       -1.87880000      -2.82870000      -2.30140000
H        0.90580000       1.55830000       0.05970000
H        0.76660000      -0.60460000       0.74030000
H        0.17330000      -2.70750000      -0.09980000
H       -1.83520000      -2.55700000       3.60190000
H       -1.76740000      -4.17770000      -0.62120000
H       -3.89910000      -3.14210000      -1.56260000
H       -3.22010000      -1.47890000      -1.18360000
H       -1.38260000      -1.96090000      -2.49500000
