18
Properties=species:S:1:pos:R:3 gdb_12671=T pbc="F F F"
C        0.14120000       1.59290000      -0.00180000
C       -0.01120000       0.06610000       0.01300000
C        0.70290000      -0.61890000      -1.18090000
N        1.99320000      -0.96180000      -0.60020000
C        1.87170000      -1.12390000       0.77950000
O        2.68320000      -1.64010000       1.51930000
N        0.65830000      -0.57150000       1.13900000
C        0.29440000      -0.37010000       2.51910000
H        1.19680000       1.87360000      -0.06970000
H       -0.38830000       2.01820000      -0.86050000
H       -0.27780000       2.04310000       0.90290000
H       -1.07800000      -0.18900000       0.01860000
H        0.14450000      -1.50630000      -1.51150000
H        0.80720000       0.06000000      -2.03240000
H        2.59550000      -1.62530000      -1.06180000
H        0.98390000      -0.96100000       3.12490000
H        0.37140000       0.68100000       2.82860000
H       -0.73160000      -0.70920000       2.70560000
