17
Properties=species:S:1:pos:R:3 gdb_54598=T pbc="F F F"
N        0.41410000       0.67440000      -0.87540000
C       -0.04510000       0.16180000       0.29190000
O        0.44450000       0.37730000       1.38700000
C       -1.24440000      -0.75260000       0.12460000
C       -2.20250000      -0.87800000       1.32510000
O       -2.14370000      -2.32660000       1.29360000
C       -1.20280000      -2.31230000       0.21530000
C       -1.87840000      -2.34550000      -1.17090000
N       -1.82980000      -0.85190000      -1.23320000
H        1.22940000       1.26320000      -0.87040000
H       -0.05000000       0.41860000      -1.73270000
H       -1.77660000      -0.47980000       2.25040000
H       -3.21880000      -0.49350000       1.17200000
H       -0.31640000      -2.91940000       0.40670000
H       -1.30010000      -2.80890000      -1.97740000
H       -2.87790000      -2.78920000      -1.13680000
H       -2.73060000      -0.39510000      -1.33970000
