16
Properties=species:S:1:pos:R:3 gdb_24340=T pbc="F F F"
C        0.00460000       1.48420000       0.11190000
O        1.30890000       2.07920000       0.02370000
C        2.13740000       1.46550000      -0.86280000
C        3.23830000       1.98740000      -1.48950000
N        3.80690000       0.94610000      -2.20700000
C        3.08280000      -0.20230000      -2.04450000
C        2.02810000       0.08180000      -1.19970000
C        0.96020000      -0.69000000      -0.60450000
C        0.00560000      -0.02570000       0.06060000
H       -0.41110000       1.84520000       1.05710000
H       -0.62730000       1.89090000      -0.69860000
H        3.67150000       2.97260000      -1.47580000
H        4.60850000       1.03950000      -2.80390000
H        3.36610000      -1.11790000      -2.53840000
H        0.95830000      -1.77340000      -0.67270000
H       -0.81760000      -0.53740000       0.54780000
