15
Properties=species:S:1:pos:R:3 gdb_31911=T pbc="F F F"
N        0.50080000       0.92160000      -0.66040000
C       -0.15910000       0.29830000       0.47560000
C       -1.53230000      -0.24570000       0.19340000
N       -2.18620000      -0.22430000      -0.92850000
C       -3.38580000      -0.85020000      -0.64460000
C       -3.40560000      -1.23090000       0.66370000
O       -2.19920000      -0.83800000       1.21110000
C       -4.34160000      -1.88710000       1.47590000
C       -5.15640000      -2.45180000       2.15990000
H        0.55630000       0.24950000      -1.42100000
H       -0.08900000       1.66860000      -1.01730000
H        0.46810000      -0.51710000       0.85780000
H       -0.23220000       1.02310000       1.29620000
H       -4.15410000      -0.98820000      -1.38800000
H       -5.87440000      -2.94960000       2.76350000
