20
Properties=species:S:1:pos:R:3 gdb_5984=T pbc="F F F"
C       -0.11270000       1.57150000       0.08410000
C       -0.00310000       0.04060000      -0.03240000
O        0.69140000      -0.48040000       1.09940000
C       -1.40570000      -0.60080000      -0.05530000
O       -2.04580000      -0.48550000       1.21390000
C        0.77590000      -0.39490000      -1.28140000
C        2.22590000       0.09700000      -1.34010000
O        2.90980000      -0.40520000      -2.48040000
H        0.87290000       2.01640000       0.23520000
H       -0.56340000       2.01530000      -0.81040000
H       -0.72380000       1.84910000       0.95050000
H        0.03120000      -0.53650000       1.80370000
H       -2.02220000      -0.17400000      -0.85820000
H       -1.30340000      -1.67540000      -0.23440000
H       -2.39990000       0.40530000       1.29530000
H        0.78650000      -1.49290000      -1.29900000
H        0.24970000      -0.06270000      -2.18430000
H        2.26260000       1.18600000      -1.44010000
H        2.74210000      -0.16680000      -0.40760000
H        2.98580000      -1.35910000      -2.37670000
