21
Properties=species:S:1:pos:R:3 gdb_31637=T pbc="F F F"
C        0.03520000       1.52730000      -0.14990000
C       -0.00780000       0.00370000       0.04830000
C       -1.39680000      -0.55240000      -0.01270000
C       -1.93440000      -1.42970000      -0.91620000
N       -3.25550000      -1.60500000      -0.54650000
C       -4.20100000      -2.50170000      -1.17800000
C       -3.45630000      -0.83390000       0.56770000
C       -4.75960000      -0.74880000       1.29080000
N       -2.35930000      -0.18850000       0.90670000
H        1.05620000       1.90920000      -0.04890000
H       -0.33620000       1.80370000      -1.14220000
H       -0.59520000       2.02260000       0.59340000
H        0.61210000      -0.49120000      -0.70820000
H        0.43320000      -0.24030000       1.02320000
H       -1.51910000      -1.93660000      -1.77250000
H       -4.14410000      -3.51400000      -0.76060000
H       -5.21800000      -2.12800000      -1.04250000
H       -3.99630000      -2.55580000      -2.24990000
H       -5.08160000      -1.71920000       1.68700000
H       -4.63780000      -0.06000000       2.12760000
H       -5.56680000      -0.37160000       0.65120000
