23
Properties=species:S:1:pos:R:3 gdb_63583=T pbc="F F F"
C       -0.18480000       1.47490000       0.13120000
C        0.00330000      -0.02900000       0.07220000
C       -1.22720000      -0.79670000      -0.37040000
C        1.36540000      -0.55570000      -0.36950000
C        0.94310000      -0.69230000       1.06230000
C        1.58680000       0.04250000       2.24500000
C        1.71980000      -1.06070000       3.31450000
C        0.61240000      -2.03210000       2.89640000
O        0.64300000      -2.01510000       1.47620000
H        0.72790000       1.99460000       0.43750000
H       -0.46960000       1.86530000      -0.85320000
H       -0.97920000       1.75120000       0.83560000
H       -1.50100000      -0.53500000      -1.39930000
H       -1.06230000      -1.87420000      -0.31650000
H       -2.08600000      -0.55990000       0.26960000
H        1.38470000      -1.46840000      -0.95660000
H        2.14570000       0.15910000      -0.61480000
H        2.54960000       0.48890000       1.98450000
H        0.93820000       0.84880000       2.60240000
H        2.69210000      -1.55660000       3.23760000
H        1.60500000      -0.68780000       4.33520000
H        0.77330000      -3.06310000       3.22210000
H       -0.36760000      -1.69680000       3.27440000
