20
Properties=species:S:1:pos:R:3 gdb_108480=T pbc="F F F"
C       -0.18970000       1.56210000      -0.04980000
N        0.01400000       0.14040000       0.08700000
C       -1.17530000      -0.72110000       0.27080000
C       -0.41660000      -1.53550000       1.33380000
O        0.47580000      -2.52950000       0.80750000
C        1.60640000      -1.61610000       0.84280000
C        0.69390000      -0.45200000       1.27980000
C        1.13600000       0.42790000       2.42630000
O        2.36100000       1.09980000       2.15780000
H        0.76930000       2.07970000      -0.17660000
H       -0.77060000       1.75060000      -0.95920000
H       -0.73280000       2.03750000       0.78910000
H       -2.03590000      -0.18880000       0.70950000
H       -1.49980000      -1.25890000      -0.62620000
H       -0.95470000      -1.87220000       2.22310000
H        2.34560000      -1.93060000       1.59030000
H        2.08050000      -1.49980000      -0.13590000
H        0.34210000       1.13420000       2.71150000
H        1.33210000      -0.20570000       3.29770000
H        2.19790000       1.75790000       1.47550000
