20
Properties=species:S:1:pos:R:3 gdb_46324=T pbc="F F F"
O       -0.34920000       0.07580000      -0.12170000
C       -0.19690000       1.25260000       0.02150000
C       -1.10340000       2.44550000       0.35280000
N        0.12640000       3.27040000       0.50050000
C        1.01780000       2.19080000      -0.04300000
C        2.25880000       1.86670000       0.83210000
C        3.49890000       2.01130000      -0.08130000
C        3.01850000       2.90190000      -1.23820000
C        1.58390000       2.40360000      -1.46960000
H       -1.76520000       2.70630000      -0.48490000
H       -1.70860000       2.36230000       1.26220000
H        0.11900000       4.11080000      -0.06810000
H        2.27310000       2.58530000       1.65560000
H        2.18400000       0.86710000       1.26980000
H        4.36330000       2.42210000       0.44740000
H        3.79580000       1.03210000      -0.47380000
H        3.00680000       3.95460000      -0.92890000
H        3.64470000       2.82990000      -2.13200000
H        1.61250000       1.43520000      -1.98500000
H        0.96010000       3.07520000      -2.06790000
