15
Properties=species:S:1:pos:R:3 gdb_64555=T pbc="F F F"
O        0.01430000       1.40920000       0.00500000
C        0.01240000       0.02500000      -0.00360000
C        1.00090000      -0.49630000      -1.01540000
O        1.66630000       0.25670000      -1.68640000
C       -0.00540000      -0.69770000       1.40870000
C       -1.48240000      -0.16170000       1.52120000
C       -1.40450000      -0.68650000       0.03800000
C       -0.67230000      -1.87030000       0.68050000
O       -0.68920000      -3.06230000       0.68810000
H        0.67250000       1.66750000      -0.66070000
H        1.08410000      -1.59590000      -1.11040000
H        0.77660000      -0.68560000       2.16370000
H       -2.15070000      -0.69280000       2.19920000
H       -1.56150000       0.91870000       1.61080000
H       -2.17530000      -0.66220000      -0.72810000
