16
Properties=species:S:1:pos:R:3 gdb_47255=T pbc="F F F"
O        0.02980000      -0.09530000       0.08230000
C       -0.01160000       1.10910000       0.06110000
C       -1.30780000       1.90310000       0.04350000
C       -1.48280000       2.89400000       1.17030000
C       -0.61630000       3.20830000       2.13180000
C        0.78220000       2.64340000       2.30150000
N        1.59330000       2.63640000       1.08600000
C        1.28220000       1.94420000      -0.03820000
O        1.92250000       1.96840000      -1.07040000
H       -1.35050000       2.44150000      -0.91610000
H       -2.13660000       1.18590000       0.03910000
H       -2.45300000       3.38540000       1.17580000
H       -0.92560000       3.92630000       2.88630000
H        1.32510000       3.23680000       3.03940000
H        0.72950000       1.62630000       2.71410000
H        2.40600000       3.23290000       1.02750000
