15
Properties=species:S:1:pos:R:3 gdb_97531=T pbc="F F F"
O        0.14800000       1.36260000      -0.39620000
C        0.07610000       0.02140000       0.06370000
C       -1.28450000      -0.51770000       0.07620000
C       -2.41690000      -0.92170000       0.10900000
C       -3.80320000      -1.41760000       0.12520000
C       -3.85140000      -2.88310000      -0.00990000
C       -3.90030000      -4.07490000      -0.13640000
C       -4.53060000      -0.96270000       1.32240000
C       -5.13550000      -0.57940000       2.28500000
H       -0.46170000       1.88410000       0.13640000
H        0.70240000      -0.56280000      -0.61930000
H        0.51570000      -0.08560000       1.06800000
H       -4.31720000      -0.99180000      -0.75160000
H       -3.93970000      -5.13100000      -0.24180000
H       -5.66670000      -0.24660000       3.14230000
