13
Properties=species:S:1:pos:R:3 gdb_33582=T pbc="F F F"
N        0.08740000      -1.17140000       0.01060000
C        0.04380000      -0.01810000      -0.00940000
C       -0.02350000       1.45790000       0.00600000
C       -0.61670000       1.99410000       1.36080000
O        0.54570000       2.22110000       2.11780000
C        1.47450000       2.72910000       1.20370000
O        1.28850000       1.99360000      -0.01260000
C       -0.80260000       1.93830000      -1.14980000
N       -1.43230000       2.34170000      -2.02910000
H       -1.17390000       2.92000000       1.16460000
H       -1.25000000       1.26880000       1.86960000
H        1.30580000       3.79910000       1.00590000
H        2.48510000       2.55050000       1.57510000
