17
Properties=species:S:1:pos:R:3 gdb_47348=T pbc="F F F"
N       -0.05260000       1.29470000       0.22290000
C       -0.01110000       0.06480000      -0.06490000
C       -1.27510000      -0.76600000      -0.09190000
N       -1.17780000      -1.84530000      -1.07060000
C       -0.01390000      -2.67080000      -0.79130000
C        1.22040000      -1.79900000      -1.03300000
O        1.17870000      -0.58710000      -0.24380000
C        2.46130000      -2.49330000      -0.71730000
C        3.46950000      -3.09910000      -0.47620000
H        0.89400000       1.68020000       0.25050000
H       -1.43310000      -1.13950000       0.93850000
H       -2.10500000      -0.10190000      -0.33540000
H       -2.02420000      -2.40230000      -1.05720000
H        0.02140000      -3.06210000       0.24150000
H        0.01830000      -3.51930000      -1.47990000
H        1.21920000      -1.50160000      -2.09030000
H        4.36720000      -3.62550000      -0.26270000
