22
Properties=species:S:1:pos:R:3 gdb_110612=T pbc="F F F"
C        0.31840000       1.53910000       0.05420000
C       -0.22660000       0.12250000      -0.11730000
N        0.52720000      -0.57920000      -1.15150000
C        1.73880000      -1.31660000      -0.85390000
C        1.68890000      -2.12120000       0.43240000
C        1.71730000      -3.59060000       0.09090000
C        0.41790000      -2.83640000      -0.06080000
C       -0.83420000      -3.23020000       0.67600000
C        0.48390000      -2.01600000      -1.34380000
H        1.36060000       1.51720000       0.39000000
H        0.28230000       2.08350000      -0.89350000
H       -0.26410000       2.09110000       0.79840000
H       -0.21080000      -0.39840000       0.85050000
H       -1.27180000       0.16110000      -0.44720000
H        2.63780000      -1.08100000      -1.41390000
H        1.90270000      -1.76080000       1.43230000
H        2.26630000      -3.93170000      -0.78350000
H        1.76490000      -4.27350000       0.93580000
H       -0.60070000      -3.62160000       1.67180000
H       -1.52050000      -2.38690000       0.79860000
H       -1.37310000      -4.01710000       0.13450000
H        0.26430000      -2.38700000      -2.34060000
