20
Properties=species:S:1:pos:R:3 gdb_10233=T pbc="F F F"
C       -0.00220000       1.37410000      -0.10380000
O        0.02360000      -0.03590000      -0.09060000
C       -1.26670000      -0.61730000       0.01520000
C       -1.14690000      -2.14040000      -0.03430000
C       -2.53230000      -2.76850000       0.12700000
O       -2.36500000      -4.16810000       0.28880000
C       -0.46690000      -2.62590000      -1.32750000
O        0.91540000      -2.34380000      -1.37590000
H        1.03110000       1.72000000      -0.17830000
H       -0.57380000       1.76200000      -0.96070000
H       -0.44760000       1.77470000       0.81930000
H       -1.74210000      -0.29330000       0.95610000
H       -1.90360000      -0.25870000      -0.81290000
H       -0.52900000      -2.46900000       0.81040000
H       -3.04160000      -2.32800000       0.99970000
H       -3.14900000      -2.54160000      -0.75900000
H       -3.23470000      -4.57790000       0.29630000
H       -0.57380000      -3.71160000      -1.39440000
H       -1.00240000      -2.18950000      -2.19220000
H        1.00930000      -1.41730000      -1.12030000
