16
Properties=species:S:1:pos:R:3 gdb_77299=T pbc="F F F"
O        0.43320000       0.76060000       0.78160000
C        0.18090000      -0.31180000      -0.06360000
C       -1.25740000      -0.90950000      -0.27610000
C       -0.91060000      -1.15850000      -1.78090000
C        0.22010000      -0.13760000      -1.59010000
O        0.74930000       0.67550000      -2.29180000
N       -1.65760000      -2.01270000       0.55340000
C       -2.87580000      -2.07630000       1.16550000
O       -3.75240000      -1.24780000       1.05720000
H        0.26510000       1.57510000       0.29340000
H        0.85240000      -1.13610000       0.22230000
H       -2.02410000      -0.14010000      -0.17530000
H       -0.52820000      -2.16820000      -1.96420000
H       -1.66820000      -0.91930000      -2.52800000
H       -0.99970000      -2.75700000       0.72760000
H       -2.97500000      -2.99000000       1.78320000
