12
Properties=species:S:1:pos:R:3 gdb_129510=T pbc="F F F"
N       -0.13210000       1.34380000       0.01130000
C        0.10490000       0.00980000       0.00160000
O        1.17640000      -0.53110000      -0.01030000
N       -1.11390000      -0.75650000       0.00880000
N       -2.33120000      -0.15140000       0.02010000
N       -3.23890000      -1.00090000       0.02420000
O       -2.66090000      -2.28450000       0.01540000
C       -1.28330000      -2.14890000       0.00540000
N       -0.41550000      -3.05320000      -0.00420000
H        0.67100000       1.94750000       0.00170000
H       -1.06020000       1.72890000       0.01520000
H       -0.84940000      -3.97390000      -0.00390000
