17
Properties=species:S:1:pos:R:3 gdb_37036=T pbc="F F F"
C       -0.02850000       1.34380000       0.05720000
C        1.35860000       0.72980000       0.01770000
C        2.26770000       0.67530000       1.21590000
N        1.76590000      -0.21420000       2.27440000
C        0.71100000      -0.89100000       2.13980000
O       -0.18750000      -0.95870000       1.09670000
C        0.14110000      -0.14960000       0.01550000
C        0.53720000      -0.65390000      -1.36620000
N        1.73850000       0.24890000      -1.32190000
H       -0.34100000       1.73280000       1.02120000
H       -0.41720000       1.88140000      -0.80400000
H        3.24230000       0.29110000       0.89680000
H        2.44780000       1.65590000       1.67250000
H        0.36910000      -1.54960000       2.93460000
H        0.83730000      -1.70600000      -1.37430000
H       -0.17850000      -0.47540000      -2.17720000
H        1.73370000       0.97630000      -2.03270000
