20
Properties=species:S:1:pos:R:3 gdb_15657=T pbc="F F F"
C        0.34440000       1.15900000       0.43380000
O        0.18620000      -0.20580000       0.13280000
C        0.51100000      -0.54640000      -1.21460000
C        2.00710000      -0.54150000      -1.46460000
C        2.50430000      -1.77760000      -1.46210000
C        1.43530000      -2.82260000      -1.26580000
C        0.12280000      -2.02580000      -1.48020000
C       -1.08040000      -2.53170000      -0.68800000
H        1.39540000       1.48140000       0.39060000
H       -0.23830000       1.79710000      -0.25070000
H       -0.02260000       1.31150000       1.45220000
H       -0.03520000       0.14030000      -1.88200000
H        2.58700000       0.36790000      -1.57210000
H        3.55490000      -2.02810000      -1.56870000
H        1.52660000      -3.66360000      -1.96290000
H        1.49210000      -3.25130000      -0.25520000
H       -0.10960000      -2.08140000      -2.55070000
H       -0.89760000      -2.46050000       0.38660000
H       -1.97900000      -1.94760000      -0.91090000
H       -1.29000000      -3.57760000      -0.93660000
