18
Properties=species:S:1:pos:R:3 gdb_51960=T pbc="F F F"
O       -0.09970000      -0.01960000       0.39300000
C       -0.01570000       1.17490000       0.19090000
N        1.15030000       1.84810000       0.04800000
C        2.43090000       1.19830000       0.12360000
C        3.54200000       2.21790000      -0.07580000
O        3.28640000       3.39200000      -0.26570000
C        4.92870000       1.69560000      -0.02420000
C        5.96400000       2.36860000      -0.91830000
C        6.00210000       2.61450000       0.54800000
H       -0.89580000       1.84170000       0.10200000
H        1.17560000       2.84450000      -0.11960000
H        2.57400000       0.69600000       1.09130000
H        2.52940000       0.40730000      -0.63380000
H        5.03330000       0.63090000       0.15160000
H        6.71360000       1.72660000      -1.36550000
H        5.58770000       3.16440000      -1.55060000
H        5.65170000       3.57600000       0.90460000
H        6.77890000       2.14690000       1.14140000
