19
Properties=species:S:1:pos:R:3 gdb_65328=T pbc="F F F"
C        0.52940000       1.22520000      -1.00920000
C        0.00930000       0.07910000      -0.16880000
O        0.90920000      -1.03530000      -0.05230000
C        0.66430000      -0.24860000       1.12400000
C        1.75580000       0.52120000       1.66150000
C        2.65320000       1.15370000       2.15170000
C       -1.43390000      -0.25610000      -0.41240000
C       -2.29150000      -1.05030000       0.53400000
C       -2.53190000       0.42850000       0.36990000
H        1.57540000       1.43580000      -0.78240000
H        0.44600000       0.97330000      -2.07180000
H       -0.06130000       2.12920000      -0.83050000
H        0.07820000      -0.76630000       1.88170000
H        3.45030000       1.71170000       2.57750000
H       -1.64200000      -0.41210000      -1.46850000
H       -3.00320000      -1.74000000       0.09450000
H       -1.86890000      -1.39990000       1.46830000
H       -2.23180000       1.07720000       1.18630000
H       -3.41630000       0.76120000      -0.16160000
