21
Properties=species:S:1:pos:R:3 gdb_86264=T pbc="F F F"
C       -0.60170000       0.86850000      -1.62020000
C        0.37600000      -0.19000000      -1.14060000
C        1.89710000       0.00190000      -1.38150000
C        2.16870000      -0.59770000       0.02440000
C        3.27830000      -0.03030000       0.89280000
C        0.68260000      -0.27770000       0.40260000
O        0.65230000       0.99930000       1.03100000
C       -0.06300000      -1.26160000       1.17470000
C       -0.70560000      -2.06650000       1.79720000
H       -0.33470000       1.85170000      -1.22170000
H       -0.59450000       0.93400000      -2.71340000
H       -1.62790000       0.63780000      -1.31090000
H        0.06630000      -1.18170000      -1.48520000
H        2.33920000      -0.50660000      -2.24130000
H        2.16490000       1.06220000      -1.42130000
H        2.26510000      -1.68490000      -0.05410000
H        3.16130000       1.04800000       1.02260000
H        3.28030000      -0.49100000       1.88630000
H        4.25430000      -0.21990000       0.43270000
H       -0.26390000       1.19250000       1.25640000
H       -1.26150000      -2.78090000       2.35260000
