23
Properties=species:S:1:pos:R:3 gdb_84803=T pbc="F F F"
C       -0.19130000       1.51720000      -0.04400000
C        0.00750000      -0.00370000       0.09070000
C        0.72140000      -0.57260000      -1.11750000
C        1.98130000      -0.91230000      -0.85080000
C        2.33400000      -0.67080000       0.59660000
C        0.94640000      -0.45380000       1.26160000
C        0.96790000       0.43100000       2.48570000
C       -0.09740000       0.30250000       3.54760000
C        1.31300000      -0.15020000       3.83490000
H        0.76620000       2.03610000      -0.16120000
H       -0.79820000       1.74770000      -0.92600000
H       -0.70120000       1.93050000       0.83140000
H       -0.98520000      -0.45420000       0.21810000
H        0.25150000      -0.62360000      -2.09470000
H        2.69580000      -1.28960000      -1.57470000
H        2.88350000      -1.50050000       1.05530000
H        2.97860000       0.21470000       0.70200000
H        0.58960000      -1.44390000       1.57420000
H        1.33310000       1.43940000       2.30850000
H       -0.45870000       1.20270000       4.03250000
H       -0.85600000      -0.46200000       3.41320000
H        1.49940000      -1.21790000       3.89330000
H        1.91520000       0.44130000       4.51580000
