13
Properties=species:S:1:pos:R:3 gdb_14591=T pbc="F F F"
O       -0.53540000       0.91870000       1.10360000
C       -0.17650000       1.42090000       0.06820000
N        1.05340000       1.20910000      -0.52290000
C        2.03220000       0.38710000       0.00680000
N        3.13500000       0.25070000      -0.60510000
C        4.16580000      -0.60990000      -0.05500000
C        3.85810000      -1.29010000       1.21460000
N        3.58040000      -1.80610000       2.21070000
H       -0.79830000       2.11330000      -0.52880000
H        1.27280000       1.67190000      -1.39430000
H        1.74110000      -0.08590000       0.94700000
H        4.41880000      -1.37390000      -0.80060000
H        5.07830000      -0.01720000       0.08610000
