17
Properties=species:S:1:pos:R:3 gdb_62197=T pbc="F F F"
N        0.02890000       1.53330000       0.06210000
C        0.02800000       0.07350000      -0.01130000
C        0.71670000      -0.52430000      -1.26490000
N        0.04810000      -0.01390000      -2.45650000
C        0.77390000      -0.29630000      -3.69190000
C        0.05000000       0.22900000      -4.85280000
N       -0.53250000       0.62420000      -5.76810000
C        0.64060000      -0.49420000       1.19690000
N        1.15410000      -0.95680000       2.12230000
H        0.97510000       1.86820000       0.22290000
H       -0.25320000       1.88050000      -0.85170000
H       -1.02170000      -0.25490000      -0.02090000
H        1.76050000      -0.18900000      -1.28340000
H        0.72900000      -1.62540000      -1.19950000
H       -0.88860000      -0.40140000      -2.52380000
H        1.75440000       0.19260000      -3.64400000
H        0.96650000      -1.36950000      -3.86630000
