19
Properties=species:S:1:pos:R:3 gdb_107070=T pbc="F F F"
O       -0.07960000       1.33300000      -0.53910000
C       -0.00040000       0.05310000       0.06780000
C       -1.36730000      -0.53670000       0.28770000
C       -2.36700000       0.10740000       1.23700000
C       -3.53880000      -0.89630000       1.28600000
C       -2.92730000      -2.28770000       0.96600000
O       -3.81970000      -3.18300000       0.33140000
C       -1.69500000      -1.95810000       0.13990000
O       -1.99800000      -1.03060000      -0.92170000
H       -0.52640000       1.21130000      -1.38460000
H        0.60470000      -0.64290000      -0.53140000
H        0.50530000       0.20240000       1.02800000
H       -1.89260000       0.21890000       2.21970000
H       -2.66480000       1.10620000       0.90700000
H       -4.06810000      -0.89150000       2.24080000
H       -4.26860000      -0.65920000       0.50700000
H       -2.61120000      -2.79660000       1.88460000
H       -4.03960000      -2.79560000      -0.52430000
H       -0.96440000      -2.72550000      -0.10410000
