17
Properties=species:S:1:pos:R:3 gdb_31821=T pbc="F F F"
C        0.06030000       1.51720000      -0.18620000
C       -0.01340000       0.00290000       0.06530000
C       -1.42690000      -0.52090000       0.03620000
N       -2.26270000      -0.11460000       1.01030000
C       -3.50840000      -0.55810000       0.98720000
C       -3.94880000      -1.42740000      -0.02400000
O       -5.22500000      -1.85810000      -0.01350000
N       -3.14520000      -1.84040000      -0.99000000
C       -1.88740000      -1.38390000      -0.95380000
H        1.09110000       1.87550000      -0.10850000
H       -0.31340000       1.76960000      -1.18390000
H       -0.54800000       2.05220000       0.54800000
H        0.58670000      -0.53220000      -0.67880000
H        0.42110000      -0.21980000       1.04680000
H       -4.18810000      -0.23730000       1.77140000
H       -5.32350000      -2.43930000      -0.78070000
H       -1.22640000      -1.72480000      -1.74670000
