21
Properties=species:S:1:pos:R:3 gdb_115952=T pbc="F F F"
C       -0.03370000       1.59220000      -0.08840000
C        0.02260000       0.06900000       0.06240000
C       -1.34720000      -0.58640000      -0.05190000
O       -1.88950000      -0.33550000      -1.35030000
C       -2.99210000      -1.21800000      -1.51000000
C       -2.56790000      -2.52950000      -0.85130000
O       -1.66760000      -3.30480000      -1.66640000
C       -0.54180000      -2.97310000      -0.82740000
C       -1.42040000      -2.11220000       0.10720000
H        0.96540000       2.03190000      -0.01420000
H       -0.45960000       1.86620000      -1.05670000
H       -0.65650000       2.04380000       0.69180000
H        0.68550000      -0.35390000      -0.70030000
H        0.44780000      -0.19830000       1.03800000
H       -2.01670000      -0.14210000       0.70910000
H       -3.89000000      -0.81970000      -1.00720000
H       -3.19690000      -1.32910000      -2.57760000
H       -3.40510000      -3.12860000      -0.47890000
H       -0.10750000      -3.86570000      -0.36090000
H        0.23930000      -2.44400000      -1.38450000
H       -1.46990000      -2.43620000       1.14650000
