19
Properties=species:S:1:pos:R:3 gdb_66500=T pbc="F F F"
C       -0.01010000       1.48190000      -0.00630000
C        0.01820000      -0.01670000       0.00110000
C        0.47430000      -1.01620000      -1.03240000
C        1.23890000      -0.87840000       0.26990000
C        0.80640000      -2.03540000       1.18470000
C        0.15540000      -2.96910000       0.40320000
C       -0.54300000      -2.07260000      -0.58080000
C       -1.07070000      -0.96370000       0.56510000
C       -0.44160000      -1.48930000       1.94360000
H        0.90760000       1.88740000      -0.44640000
H       -0.85670000       1.86970000      -0.58490000
H       -0.09210000       1.88400000       1.01090000
H        0.87830000      -0.87230000      -2.02640000
H        2.22730000      -0.43780000       0.30660000
H       -0.40380000      -3.78430000       0.86240000
H       -1.27140000      -2.47290000      -1.28460000
H       -2.10230000      -0.59840000       0.55290000
H       -1.04130000      -2.25230000       2.44340000
H       -0.25370000      -0.65760000       2.63190000
