25
Properties=species:S:1:pos:R:3 gdb_93098=T pbc="F F F"
C       -0.03680000       1.57420000      -0.09290000
C        0.05890000       0.04580000       0.00210000
C        0.67570000      -0.53110000      -1.28650000
C        0.94880000      -2.00660000      -1.20130000
C        0.92900000      -2.67920000      -0.05200000
C        0.64550000      -2.03390000       1.27830000
C        0.78620000      -0.49100000       1.27240000
C        2.28210000      -0.11760000       1.28420000
C        0.12650000       0.05600000       2.55060000
H        0.95250000       2.04210000      -0.13850000
H       -0.57230000       1.86200000      -1.00430000
H       -0.57530000       2.00860000       0.75350000
H       -0.96900000      -0.34190000       0.06290000
H        0.00120000      -0.32760000      -2.12940000
H        1.60500000       0.00620000      -1.53250000
H        1.17170000      -2.52490000      -2.13130000
H        1.11730000      -3.75060000      -0.04810000
H       -0.37020000      -2.30700000       1.60400000
H        1.31370000      -2.45370000       2.04260000
H        2.82550000      -0.58100000       0.45630000
H        2.43060000       0.96510000       1.22700000
H        2.74830000      -0.46020000       2.21480000
H        0.52140000      -0.45740000       3.43470000
H        0.31380000       1.12560000       2.68440000
H       -0.95870000      -0.09740000       2.53510000
