19
Properties=species:S:1:pos:R:3 gdb_81272=T pbc="F F F"
C       -0.04330000       1.57950000       0.06590000
C       -0.01940000       0.05830000       0.06220000
C        0.82680000      -0.59950000      -1.06300000
O        2.03100000      -0.34570000      -0.26220000
C        1.14160000      -0.58830000       0.87580000
C        0.84770000      -2.08170000       0.67370000
O        0.74250000      -2.96760000       1.47560000
C        0.66590000      -2.12350000      -0.86560000
C       -0.61710000      -2.80920000      -1.32770000
H        0.96210000       1.98210000      -0.07810000
H       -0.68430000       1.95590000      -0.73870000
H       -0.43890000       1.96220000       1.01210000
H       -1.01860000      -0.35780000       0.22850000
H        0.87520000      -0.19920000      -2.07650000
H        1.49910000      -0.23300000       1.84060000
H        1.53750000      -2.62110000      -1.30560000
H       -1.51160000      -2.29010000      -0.96960000
H       -0.66880000      -2.85680000      -2.41970000
H       -0.65080000      -3.83090000      -0.93880000
