17
Properties=species:S:1:pos:R:3 gdb_20885=T pbc="F F F"
C        0.00710000       1.56530000       0.01060000
C        0.00810000       0.03490000       0.00250000
C       -1.41330000      -0.54060000       0.01220000
N       -1.44180000      -1.99740000       0.00480000
C       -1.42790000      -2.83640000      -1.07400000
N       -1.40110000      -4.08940000      -0.69700000
N       -1.39190000      -4.09660000       0.68420000
C       -1.41370000      -2.84760000       1.07450000
H        1.02800000       1.95620000       0.00320000
H       -0.51030000       1.96870000      -0.86670000
H       -0.49380000       1.95930000       0.90170000
H        0.53570000      -0.33970000      -0.88230000
H        0.55140000      -0.34910000       0.87360000
H       -1.95730000      -0.19820000       0.89850000
H       -1.97310000      -0.18870000      -0.86050000
H       -1.44640000      -2.48120000      -2.09320000
H       -1.41870000      -2.50290000       2.09750000
