16
Properties=species:S:1:pos:R:3 gdb_44123=T pbc="F F F"
O       -0.01610000       0.41540000      -0.89640000
C       -0.02040000       1.40430000      -0.21800000
C       -1.28100000       2.11200000       0.31860000
C       -0.78730000       3.34060000       1.05290000
C        0.72710000       3.36130000       1.03250000
C        1.23420000       2.14650000       0.28460000
C       -0.05540000       4.40990000       0.24920000
C       -0.07460000       4.39540000      -1.18620000
N       -0.08970000       4.36670000      -2.34310000
H       -1.96330000       2.32130000      -0.51070000
H       -1.80010000       1.42740000       0.99840000
H       -1.33440000       3.69190000       1.91920000
H        1.28760000       3.72790000       1.88370000
H        1.79010000       1.47670000       0.94990000
H        1.88790000       2.37410000      -0.56280000
H       -0.06330000       5.40730000       0.67600000
