15
Properties=species:S:1:pos:R:3 gdb_13086=T pbc="F F F"
O        0.04530000       1.39670000      -0.21920000
C        0.07170000       0.01170000       0.02020000
C       -0.00100000      -0.47070000       1.48800000
O       -1.25250000      -1.14760000       1.23790000
C       -1.31900000      -0.65290000      -0.11220000
C       -2.48960000       0.31260000      -0.33520000
C       -3.77820000      -0.37030000      -0.26310000
N       -4.79480000      -0.91730000      -0.21820000
H        0.94180000       1.74110000      -0.16670000
H        0.84700000      -0.48610000      -0.57340000
H        0.77940000      -1.16370000       1.82160000
H       -0.10680000       0.34680000       2.21200000
H       -1.37590000      -1.47730000      -0.83220000
H       -2.45620000       1.11390000       0.40770000
H       -2.38660000       0.78350000      -1.31910000
