18
Properties=species:S:1:pos:R:3 gdb_85206=T pbc="F F F"
C       -0.29790000       1.51520000       0.03990000
C        0.00150000       0.02340000      -0.07070000
C        1.33260000      -0.29550000      -0.83110000
C        1.99910000      -0.46490000       0.54180000
O        3.11560000      -0.37780000       0.96120000
C        0.61780000      -0.59230000       1.22430000
O        0.36470000       0.10460000       2.41990000
C        1.07180000      -0.28030000       3.51130000
N        0.86420000       0.29610000       4.61280000
H        0.57590000       2.07390000       0.39130000
H       -0.58670000       1.91600000      -0.93650000
H       -1.10970000       1.70080000       0.74730000
H       -0.87150000      -0.51960000      -0.43670000
H        1.30850000      -1.23450000      -1.39280000
H        1.74870000       0.48740000      -1.46930000
H        0.34930000      -1.65500000       1.31930000
H        1.78690000      -1.08550000       3.31050000
H        1.46960000      -0.09950000       5.32920000
