18
Properties=species:S:1:pos:R:3 gdb_55118=T pbc="F F F"
C       -0.03830000       1.47500000      -0.00690000
C        0.12870000      -0.01080000       0.27380000
O        1.19230000      -0.50140000       0.57040000
C       -1.16520000      -0.80360000       0.22570000
N       -1.07600000      -2.29560000       0.30030000
C       -1.99000000      -2.29380000       1.46320000
C       -1.29120000      -1.59210000       2.60170000
C       -1.98960000      -0.78050000       1.54160000
O       -2.98770000       0.14080000       1.78550000
H        0.84850000       2.02020000       0.31870000
H       -0.17730000       1.62940000      -1.08390000
H       -0.93470000       1.86900000       0.48510000
H       -1.80200000      -0.45620000      -0.59600000
H       -1.52420000      -2.70570000      -0.51270000
H       -2.77240000      -3.02980000       1.59720000
H       -1.83230000      -1.62410000       3.54320000
H       -0.20740000      -1.62520000       2.66920000
H       -2.72060000       0.69410000       2.52740000
