17
Properties=species:S:1:pos:R:3 gdb_24215=T pbc="F F F"
C       -0.03290000       1.51000000      -0.05600000
C        1.52720000       1.36180000       0.00870000
C        1.14860000       0.16530000       0.94940000
N       -0.08140000      -0.02590000       0.04280000
C        0.63490000      -0.32100000      -1.19370000
C        0.64070000      -1.13290000      -2.28680000
N        1.73690000      -0.73350000      -3.04040000
C        2.40930000       0.31650000      -2.42630000
C        1.73280000       0.58380000      -1.27340000
H       -0.47780000       1.95370000       0.83930000
H       -0.48140000       1.91860000      -0.96350000
H        2.19870000       2.16920000       0.29940000
H        1.81670000      -0.69690000       0.99210000
H        0.82820000       0.46730000       1.95060000
H        0.00280000      -1.93750000      -2.61350000
H        2.00700000      -1.14910000      -3.91340000
H        3.28650000       0.74420000      -2.88500000
