18
Properties=species:S:1:pos:R:3 gdb_111821=T pbc="F F F"
C       -0.17480000       1.54350000      -0.11680000
C        0.14310000       0.05020000       0.00860000
N        0.69930000      -0.54190000      -1.18960000
C        0.16830000      -0.74980000      -2.53440000
C        0.42540000       0.39370000      -3.54520000
O        1.76650000      -0.08210000      -3.80800000
C        1.58260000      -1.23010000      -2.95210000
C        1.99120000      -0.94470000      -1.47840000
O        2.98710000      -0.99010000      -0.80770000
H        0.72360000       2.11340000      -0.37060000
H       -0.93040000       1.72890000      -0.88680000
H       -0.56670000       1.92390000       0.83160000
H        0.89050000      -0.11520000       0.79090000
H       -0.75990000      -0.50320000       0.29770000
H       -0.74950000      -1.33410000      -2.60230000
H       -0.19410000       0.33040000      -4.44810000
H        0.40890000       1.41480000      -3.15220000
H        1.84360000      -2.18020000      -3.41920000
