13
Properties=species:S:1:pos:R:3 gdb_21061=T pbc="F F F"
C       -0.05800000       1.41410000       0.00950000
N       -0.02770000      -0.03960000       0.00110000
N       -1.22090000      -0.67660000       0.00550000
C       -1.16160000      -1.96570000      -0.00150000
C        0.09520000      -2.69580000      -0.01290000
N        0.12970000      -3.97210000      -0.02190000
N        1.27010000      -1.89200000      -0.01520000
N        1.17750000      -0.62860000      -0.00820000
H        0.97360000       1.76200000       0.00280000
H       -0.58580000       1.78160000      -0.87420000
H       -0.57080000       1.77180000       0.90610000
H       -2.10180000      -2.50820000       0.00170000
H        1.10540000      -4.28070000      -0.02970000
