16
Properties=species:S:1:pos:R:3 gdb_74132=T pbc="F F F"
C        0.26270000       1.48460000       0.08410000
C       -0.01840000       0.01830000      -0.03300000
C        0.07320000      -0.65920000      -1.18300000
C       -0.26250000      -2.08230000      -1.29800000
O       -0.34090000      -2.69050000      -2.32790000
O       -0.50200000      -2.77180000      -0.11690000
C       -0.35140000      -2.19610000       1.12790000
N       -0.17600000      -2.90470000       2.15500000
C       -0.46630000      -0.69630000       1.21150000
H        1.07980000       1.66410000       0.79340000
H        0.53230000       1.92440000      -0.87820000
H       -0.61290000       2.01570000       0.47790000
H        0.35470000      -0.18690000      -2.11670000
H       -0.15220000      -3.89540000       1.90530000
H        0.09080000      -0.36630000       2.09220000
H       -1.51700000      -0.43440000       1.40910000
