17
Properties=species:S:1:pos:R:3 gdb_87702=T pbc="F F F"
O        0.08070000       1.38560000       0.26310000
C        0.04090000      -0.00650000       0.26550000
C       -0.69880000      -0.73310000       1.34310000
C       -1.31080000      -0.60230000      -0.04210000
C       -2.58300000       0.13430000      -0.49570000
C       -2.94840000      -1.08820000      -1.39260000
O       -3.17500000      -0.79020000      -2.74710000
C       -1.57050000      -1.69740000      -1.03090000
O       -0.93970000      -2.62590000      -1.45850000
H        0.70700000       1.67050000       0.93710000
H        0.89340000      -0.50700000      -0.19410000
H       -0.35320000      -1.71610000       1.64660000
H       -1.15980000      -0.13160000       2.12000000
H       -3.31010000       0.37710000       0.28060000
H       -2.36810000       1.02360000      -1.09080000
H       -3.76520000      -1.68750000      -0.95770000
H       -2.95880000      -1.58060000      -3.25540000
