18
Properties=species:S:1:pos:R:3 gdb_22746=T pbc="F F F"
O       -0.20260000       1.17670000      -0.61070000
N       -0.00830000      -0.15350000      -0.18580000
C       -1.11760000      -0.68640000       0.12450000
C       -2.50270000      -0.07940000       0.05000000
O       -3.37550000      -1.07190000       0.57760000
C       -2.75180000      -2.32590000       0.39510000
C       -3.52610000      -3.52460000       0.81040000
C       -3.29620000      -3.24520000      -0.66900000
C       -1.26180000      -2.10880000       0.61210000
H        0.69440000       1.45830000      -0.81840000
H       -2.59630000       0.83340000       0.64580000
H       -2.74840000       0.17140000      -0.99330000
H       -2.99410000      -4.34850000       1.27400000
H       -4.52270000      -3.35040000       1.20020000
H       -4.14560000      -2.88790000      -1.24010000
H       -2.60800000      -3.88220000      -1.21490000
H       -0.62450000      -2.80920000       0.06990000
H       -1.01310000      -2.17170000       1.67920000
