17
Properties=species:S:1:pos:R:3 gdb_15865=T pbc="F F F"
C       -0.01460000       1.57560000      -0.13000000
C        0.05890000       0.06490000       0.01240000
C        0.98530000      -0.74780000      -0.93260000
C        1.30840000      -1.69570000       0.24880000
O        2.57560000      -2.24720000       0.40380000
C        0.81060000      -0.56930000       1.24130000
C        1.92990000       0.22200000       1.71990000
N        2.86400000       0.81900000       2.05300000
H        0.98000000       2.02870000      -0.07700000
H       -0.45890000       1.84570000      -1.09370000
H       -0.62950000       2.02190000       0.65850000
H       -0.94860000      -0.36260000      -0.00050000
H        0.55420000      -1.18440000      -1.83550000
H        1.86980000      -0.16260000      -1.20850000
H        0.60360000      -2.53030000       0.28850000
H        3.22020000      -1.53130000       0.46550000
H        0.20060000      -0.89150000       2.08810000
