21
Properties=species:S:1:pos:R:3 gdb_64214=T pbc="F F F"
C       -0.09480000       1.56150000       0.07040000
C        0.00300000       0.04030000       0.04810000
C       -1.25500000      -0.60650000      -0.51500000
O        1.17550000      -0.38080000      -0.71030000
C        1.81760000      -0.92070000       0.45810000
C        0.58190000      -0.64200000       1.33420000
C        0.75360000       0.16400000       2.59350000
C        1.91280000      -0.00110000       3.48120000
O        1.79800000       1.14130000       2.63110000
H        0.81220000       2.00910000       0.48050000
H       -0.23440000       1.93070000      -0.95070000
H       -0.94920000       1.89400000       0.67040000
H       -1.44960000      -0.24010000      -1.52810000
H       -1.14430000      -1.69370000      -0.56160000
H       -2.12630000      -0.37060000       0.10630000
H        2.09450000      -1.97330000       0.32820000
H        2.70520000      -0.34140000       0.73910000
H        0.02230000      -1.54900000       1.58490000
H       -0.17670000       0.50530000       3.05190000
H        1.81350000       0.19720000       4.54710000
H        2.70010000      -0.70430000       3.21190000
