18
Properties=species:S:1:pos:R:3 gdb_58015=T pbc="F F F"
C       -0.04380000       1.20800000      -0.27770000
N       -0.00640000      -0.24680000      -0.28670000
C       -0.93190000      -0.90050000       0.62290000
C        0.91570000      -0.87380000      -1.07120000
O        1.72410000      -0.27880000      -1.76760000
C        0.94490000      -2.41190000      -1.07110000
O       -0.30340000      -3.01360000      -1.44110000
C       -0.54070000      -3.17470000      -2.76390000
O       -1.56900000      -3.61620000      -3.17510000
H        0.20560000       1.59370000       0.71880000
H        0.68110000       1.57710000      -1.00070000
H       -1.04700000       1.56270000      -0.54160000
H       -0.93060000      -1.97880000       0.48870000
H       -0.68250000      -0.66330000       1.66580000
H       -1.95200000      -0.54630000       0.43280000
H        1.73590000      -2.69350000      -1.77000000
H        1.18920000      -2.81050000      -0.08330000
H        0.31400000      -2.86420000      -3.39350000
