13
Properties=species:S:1:pos:R:3 gdb_129685=T pbc="F F F"
N       -0.16260000       1.41110000       0.01780000
C       -0.01110000       0.01570000      -0.01280000
C       -1.03040000      -0.91100000      -0.00060000
N       -2.37200000      -0.62860000       0.04360000
C       -3.43570000      -1.51670000       0.05780000
O       -3.34850000      -2.71420000       0.03280000
O       -0.55270000      -2.12880000      -0.03720000
N        0.94570000      -1.94060000      -0.07730000
N        1.15000000      -0.71310000      -0.06000000
H        0.27520000       1.82860000       0.83290000
H        0.22780000       1.85930000      -0.80510000
H       -2.56830000       0.36440000       0.06780000
H       -4.39300000      -0.96310000       0.09580000
