14
Properties=species:S:1:pos:R:3 gdb_127373=T pbc="F F F"
C       -0.34740000       1.40540000       0.02590000
N       -0.02610000      -0.01840000      -0.01310000
C        0.01730000      -0.71740000      -1.18510000
N        0.28380000      -1.95940000      -1.35980000
O        0.57010000      -2.69920000      -0.18090000
C        0.56490000      -2.14310000       1.05460000
O        0.81350000      -2.81660000       2.01540000
C        0.24150000      -0.67310000       1.17970000
N        0.21080000      -0.05770000       2.29020000
H        0.48020000       1.96220000       0.47180000
H       -0.52810000       1.75600000      -0.99060000
H       -1.23480000       1.57060000       0.64160000
H       -0.19980000      -0.16100000      -2.09030000
H        0.43590000      -0.72140000       3.03320000
