19
Properties=species:S:1:pos:R:3 gdb_99264=T pbc="F F F"
C        0.07290000       1.26660000       0.38080000
C       -0.16640000      -0.21660000       0.08430000
O       -0.15570000      -1.00100000       1.26460000
C       -1.46320000      -0.39440000      -0.70700000
O       -1.72610000      -1.78360000      -0.99540000
C       -2.42430000      -2.47070000      -0.09140000
O       -2.86310000      -2.02510000       0.94840000
C       -2.63560000      -3.91420000      -0.50490000
O       -3.42080000      -4.59590000       0.43020000
H        0.99360000       1.37830000       0.95800000
H        0.16760000       1.85220000      -0.54020000
H       -0.75060000       1.68480000       0.97090000
H        0.66270000      -0.60050000      -0.52370000
H       -1.04020000      -0.98490000       1.65110000
H       -2.31330000       0.02040000      -0.15680000
H       -1.39060000       0.09260000      -1.68190000
H       -3.10330000      -3.92510000      -1.49990000
H       -1.64260000      -4.37630000      -0.61760000
H       -3.58080000      -3.96740000       1.14910000
