22
Properties=species:S:1:pos:R:3 gdb_63678=T pbc="F F F"
C        0.08860000       1.46830000      -0.40190000
C       -0.01520000       0.01740000       0.03470000
C       -1.35340000      -0.61830000      -0.29870000
C        1.21590000      -0.85650000      -0.05600000
C        0.66400000      -0.46080000       1.30140000
C        1.44540000       0.44180000       2.23080000
N        2.43580000      -0.30980000       2.99220000
C        2.52280000      -0.27540000       4.34760000
O        1.83360000       0.40220000       5.08120000
H        1.07910000       1.89250000      -0.22090000
H       -0.11150000       1.55470000      -1.47620000
H       -0.64480000       2.09390000       0.12020000
H       -1.54250000      -0.59010000      -1.37830000
H       -1.39190000      -1.66470000       0.01960000
H       -2.17570000      -0.08820000       0.19590000
H        1.10600000      -1.88510000      -0.38380000
H        2.13980000      -0.38480000      -0.37960000
H        0.13320000      -1.24660000       1.83410000
H        1.94030000       1.24440000       1.67170000
H        0.79470000       0.91340000       2.97160000
H        3.04550000      -0.93610000       2.49010000
H        3.31690000      -0.95240000       4.72220000
