20
Properties=species:S:1:pos:R:3 gdb_79709=T pbc="F F F"
C       -0.06250000       1.52680000      -0.05300000
N        0.00560000       0.06910000      -0.05000000
C        0.72740000      -0.78410000      -1.03200000
C        2.23840000      -0.66860000      -0.74480000
C        2.77520000       0.50200000       0.03770000
C        2.18990000      -0.66790000       0.78560000
C        0.66370000      -0.78310000       0.97660000
C        0.34810000      -1.95150000      -0.03820000
O       -0.96500000      -2.40620000      -0.07960000
H        0.44440000       1.95850000      -0.92290000
H       -1.11010000       1.85240000      -0.08700000
H        0.38710000       1.95920000       0.84760000
H        0.38040000      -0.76940000      -2.06640000
H        2.91940000      -1.29740000      -1.30670000
H        3.85930000       0.55750000       0.07200000
H        2.30360000       1.47230000       0.02240000
H        2.83390000      -1.29630000       1.39000000
H        0.25190000      -0.76740000       1.98690000
H        1.01140000      -2.81780000      -0.01670000
H       -1.49970000      -1.59880000      -0.09690000
