12
Properties=species:S:1:pos:R:3 gdb_129126=T pbc="F F F"
N       -0.05750000       1.30350000       0.06520000
C       -0.06920000       0.03660000       0.05690000
N       -1.26360000      -0.68780000       0.06280000
C       -1.16980000      -1.90560000      -0.30630000
N        0.02270000      -2.50720000      -0.64920000
C        0.09340000      -3.83090000      -1.13330000
O        1.10540000      -4.41290000      -1.38060000
N        1.23790000      -1.88290000      -0.29330000
N        1.17860000      -0.69880000       0.07270000
H        0.91150000       1.62850000       0.08520000
H       -2.04900000      -2.54930000      -0.33750000
H       -0.92330000      -4.24480000      -1.26660000
