19
Properties=species:S:1:pos:R:3 gdb_78987=T pbc="F F F"
C       -0.28310000       1.49260000      -0.13550000
C       -0.05390000      -0.01420000      -0.07390000
C        1.09120000      -0.54320000      -0.98010000
C        1.26520000      -2.04260000      -0.64360000
C        1.08460000      -2.00790000       0.87910000
C        2.45670000      -1.84450000       0.26570000
C        2.14560000      -0.32700000       0.19420000
O        3.13920000       0.61900000       0.29060000
C        0.84470000      -0.49580000       1.09780000
H        0.65140000       2.05890000      -0.03810000
H       -0.73840000       1.78620000      -1.08760000
H       -0.94620000       1.82650000       0.67000000
H       -1.00840000      -0.54350000      -0.17500000
H        1.23940000      -0.21110000      -2.00810000
H        1.01300000      -2.90390000      -1.24780000
H        0.69360000      -2.84240000       1.44570000
H        3.37240000      -2.40590000       0.38710000
H        2.74850000       1.49710000       0.22600000
H        0.75010000      -0.11710000       2.11600000
