20
Properties=species:S:1:pos:R:3 gdb_95027=T pbc="F F F"
O        0.12730000       1.23190000      -0.56060000
C        0.02410000      -0.05220000       0.03090000
C        0.52300000      -0.12100000       1.50340000
C       -0.40820000      -1.11250000       2.24570000
C       -1.71210000      -1.16060000       1.42720000
C       -2.79870000      -0.09110000       1.59740000
C       -2.33980000       1.29330000       1.37320000
N       -2.58540000       0.46010000       0.18620000
C       -1.44360000      -0.52830000       0.04060000
H        1.06070000       1.45810000      -0.61820000
H        0.59010000      -0.78700000      -0.56390000
H        1.57220000      -0.42960000       1.55840000
H        0.46960000       0.87990000       1.94160000
H        0.04370000      -2.11020000       2.26620000
H       -0.57480000      -0.81930000       3.28670000
H       -2.14770000      -2.16050000       1.39260000
H       -3.79930000      -0.30190000       1.96350000
H       -3.09540000       2.06750000       1.47780000
H       -1.33900000       1.62790000       1.60980000
H       -1.66520000      -1.15280000      -0.82550000
