21
Properties=species:S:1:pos:R:3 gdb_100477=T pbc="F F F"
C       -0.02690000       1.46560000      -0.45340000
O       -0.21920000       0.07020000      -0.47140000
C        0.83110000      -0.65460000      -1.11050000
C        2.05820000      -0.80980000      -0.19610000
C        0.30660000      -1.95830000      -1.51230000
C       -0.09510000      -3.04540000      -1.84390000
C       -0.58420000      -4.33480000      -2.23520000
C       -2.02040000      -4.49130000      -2.71290000
C       -0.89670000      -4.62610000      -3.69570000
H        0.82720000       1.77330000       0.16800000
H        0.12330000       1.86950000      -1.46740000
H       -0.93420000       1.90540000      -0.03190000
H        1.13660000      -0.10390000      -2.01760000
H        1.77500000      -1.34220000       0.71530000
H        2.84040000      -1.37810000      -0.70670000
H        2.46730000       0.16700000       0.07660000
H       -0.18690000      -5.16940000      -1.66470000
H       -2.54970000      -5.38500000      -2.40230000
H       -2.62520000      -3.59340000      -2.74820000
H       -0.73710000      -3.82030000      -4.40200000
H       -0.64660000      -5.61330000      -4.06760000
