15
Properties=species:S:1:pos:R:3 gdb_12719=T pbc="F F F"
C       -0.18260000       1.46600000      -0.00310000
C        0.05360000      -0.01440000       0.00770000
O       -1.15720000      -0.80820000       0.13780000
C       -0.57060000      -1.64010000       1.16910000
C        0.77260000      -0.92260000       1.03920000
O        1.59850000      -1.48310000      -0.02130000
C        1.01720000      -0.66200000      -0.98140000
N        1.24920000      -0.53740000      -2.20410000
H        0.76580000       2.01060000      -0.01640000
H       -0.74000000       1.73520000      -0.90570000
H       -0.76450000       1.77200000       0.87020000
H       -1.07600000      -1.49190000       2.13090000
H       -0.56030000      -2.70300000       0.90820000
H        1.35870000      -0.62310000       1.90550000
H        1.97760000      -1.17950000      -2.52170000
