20
Properties=species:S:1:pos:R:3 gdb_120566=T pbc="F F F"
C        0.03840000       1.52660000      -0.24020000
C        0.07490000       0.02030000      -0.02810000
C        1.39450000      -0.69390000      -0.04280000
N        0.65130000      -0.56430000       1.20190000
C        1.18360000       0.31280000       2.24530000
C        1.74580000      -0.55550000       3.37110000
O        2.75720000      -1.43470000       2.91230000
C       -1.09910000      -0.66760000      -0.51680000
C       -2.08330000      -1.20510000      -0.95030000
H        0.96790000       2.00400000       0.07560000
H       -0.11410000       1.74550000      -1.30070000
H       -0.79190000       1.97510000       0.31430000
H        1.46600000      -1.69460000      -0.46030000
H        2.28120000      -0.07470000      -0.17500000
H        1.97440000       0.98290000       1.87520000
H        0.36990000       0.93250000       2.64100000
H        2.20700000       0.08190000       4.13310000
H        0.92150000      -1.10900000       3.84470000
H        2.32680000      -2.04840000       2.30730000
H       -2.94940000      -1.69350000      -1.32280000
