27
Properties=species:S:1:pos:R:3 gdb_100679=T pbc="F F F"
C        0.07600000       1.56520000      -0.12670000
C       -0.17570000       0.07110000       0.10930000
C        0.64230000      -0.52590000       1.27820000
C        0.04390000      -0.06630000       2.62090000
C        0.82740000      -2.07870000       1.16300000
C       -0.51560000      -2.81700000       0.99860000
C        1.74180000      -2.40610000      -0.03600000
C        1.52260000      -2.59790000       2.43840000
O        1.83810000      -3.97580000       2.27110000
H        1.12890000       1.75280000      -0.36590000
H       -0.52480000       1.93470000      -0.96390000
H       -0.17660000       2.17340000       0.74770000
H       -1.24480000      -0.09180000       0.29670000
H        0.05140000      -0.46110000      -0.81960000
H        1.65470000      -0.09910000       1.21320000
H       -0.92000000      -0.54800000       2.81780000
H        0.70350000      -0.27570000       3.46710000
H       -0.12960000       1.01370000       2.61490000
H       -0.99310000      -2.57610000       0.04480000
H       -0.34950000      -3.89650000       1.03210000
H       -1.21940000      -2.56480000       1.79910000
H        2.70340000      -1.88720000       0.05240000
H        1.94430000      -3.47800000      -0.07570000
H        1.28930000      -2.11320000      -0.98690000
H        2.43710000      -2.00860000       2.62120000
H        0.86210000      -2.46580000       3.30600000
H        2.17860000      -4.30680000       3.10640000
