16
Properties=species:S:1:pos:R:3 gdb_29038=T pbc="F F F"
C       -0.49450000       1.44020000       0.05690000
C       -0.05020000       0.00620000      -0.00610000
N        0.06430000      -0.56510000      -1.15480000
C        0.38650000      -1.87760000      -1.37300000
C        0.17730000      -2.95690000      -0.57010000
N       -0.38320000      -2.98430000       0.68130000
C       -0.38970000      -1.98230000       1.48360000
C        0.23890000      -0.64970000       1.30500000
N        0.85370000      -0.00110000       2.21900000
H        0.27430000       2.04170000       0.55160000
H       -0.68260000       1.81530000      -0.94910000
H       -1.40200000       1.53760000       0.66370000
H        0.74860000      -2.07400000      -2.37980000
H        0.37160000      -3.94060000      -0.98930000
H       -0.91350000      -2.11410000       2.43490000
H        0.92890000      -0.56420000       3.07170000
