13
Properties=species:S:1:pos:R:3 gdb_128143=T pbc="F F F"
C       -0.14460000       1.49710000      -0.15200000
N        0.00900000       0.08230000       0.13350000
C        0.79410000      -0.36630000       1.14470000
C        0.81770000      -1.86050000       1.27460000
N        1.57450000      -2.32250000       2.24840000
N        2.23510000      -2.65170000       3.09780000
O        1.43960000       0.33190000       1.90430000
C        0.11930000      -2.77620000       0.46400000
N       -0.49080000      -3.45750000      -0.25180000
H        0.46270000       2.04650000       0.56740000
H        0.19750000       1.73250000      -1.16520000
H       -1.18980000       1.80720000      -0.05090000
H       -0.48320000      -0.58730000      -0.43680000
