21
Properties=species:S:1:pos:R:3 gdb_104390=T pbc="F F F"
C       -0.28910000       1.67840000       0.14490000
C       -0.00220000       0.18090000       0.10600000
C       -1.30780000      -0.63070000      -0.02670000
O       -1.89920000      -0.43620000      -1.29170000
O        0.76170000      -0.11300000      -1.09440000
C        1.98710000      -0.75800000      -0.75970000
C        1.74250000      -1.40080000       0.60540000
C        0.85030000      -0.34680000       1.28280000
O        1.61590000       0.72470000       1.81750000
H        0.63750000       2.25030000       0.09190000
H       -0.92870000       1.93860000      -0.70160000
H       -0.80650000       1.94810000       1.07040000
H       -1.09550000      -1.69840000       0.15330000
H       -2.03350000      -0.30460000       0.72650000
H       -1.17120000      -0.52160000      -1.92210000
H        2.22810000      -1.47600000      -1.54920000
H        2.79880000      -0.01960000      -0.69930000
H        1.20310000      -2.34740000       0.49830000
H        2.65960000      -1.59240000       1.16980000
H        0.20590000      -0.78360000       2.05910000
H        2.14780000       0.37570000       2.53940000
