17
Properties=species:S:1:pos:R:3 gdb_38271=T pbc="F F F"
C       -0.04450000       1.63510000       0.10570000
C        1.41800000       1.18300000      -0.02360000
O        1.12200000       0.04000000       0.90890000
C       -0.00620000       0.09050000      -0.04450000
C       -1.14790000      -0.83880000      -0.33030000
O       -1.60270000      -0.39180000      -1.62160000
C       -0.60870000      -0.35440000      -2.62220000
O        0.43060000       0.59070000      -2.38850000
C        1.02320000       0.21240000      -1.16850000
H       -0.33100000       1.99220000       1.09530000
H       -0.47280000       2.20960000      -0.71430000
H        2.34670000       1.72390000       0.15420000
H       -0.81170000      -1.88580000      -0.36740000
H       -2.00340000      -0.75540000       0.34360000
H       -0.16280000      -1.35810000      -2.74190000
H       -1.11150000      -0.04570000      -3.53920000
H        1.69610000      -0.64650000      -1.27440000
