19
Properties=species:S:1:pos:R:3 gdb_84566=T pbc="F F F"
C       -0.16590000       1.58030000      -0.03480000
C        0.00110000       0.04880000      -0.04500000
C        0.69440000      -0.42860000      -1.29640000
C        1.81180000      -1.14790000      -1.20580000
C        2.35710000      -1.48790000       0.14850000
C        1.33540000      -1.87830000       1.25830000
O        2.29220000      -1.42910000       2.28710000
C        2.30950000      -0.38440000       1.24620000
C        0.75200000      -0.43700000       1.19660000
H        0.80850000       2.07970000      -0.04110000
H       -0.72190000       1.92070000      -0.91430000
H       -0.71090000       1.90820000       0.85640000
H       -1.00970000      -0.38790000      -0.01890000
H        0.26160000      -0.15810000      -2.25590000
H        2.33750000      -1.50260000      -2.08690000
H        3.27040000      -2.08320000       0.15740000
H        0.82600000      -2.83010000       1.41610000
H        2.97650000       0.46660000       1.39010000
H        0.28630000      -0.12480000       2.13470000
