18
Properties=species:S:1:pos:R:3 gdb_119206=T pbc="F F F"
C        0.17110000       1.50240000       0.22450000
C        0.33960000       0.01120000       0.00480000
O        0.47130000      -0.61360000       1.28940000
C        0.66470000      -1.99090000       1.26220000
C        2.07290000      -2.50960000       0.96060000
C        1.57870000      -2.46920000       2.38090000
O        2.04120000      -1.52280000       3.27690000
C       -0.48150000      -2.77570000       0.86820000
N       -1.39810000      -3.40300000       0.54380000
H        1.04300000       1.92300000       0.73390000
H        0.05630000       2.00980000      -0.73760000
H       -0.71570000       1.70480000       0.83100000
H       -0.53090000      -0.41260000      -0.51280000
H        1.23060000      -0.20660000      -0.60010000
H        2.16890000      -3.46750000       0.46220000
H        2.78930000      -1.75000000       0.66680000
H        1.33010000      -3.41040000       2.86020000
H        1.71610000      -0.66460000       2.97080000
