25
Properties=species:S:1:pos:R:3 gdb_122978=T pbc="F F F"
C       -0.00800000       1.42750000      -0.04160000
O        0.01550000       0.02330000       0.00530000
C       -1.27400000      -0.55010000      -0.02960000
C       -1.13710000      -2.06500000       0.02310000
C       -2.49130000      -2.77910000       0.00600000
C       -2.37290000      -4.30450000       0.02050000
C       -3.74140000      -4.98390000       0.12560000
O       -1.69370000      -4.67440000      -1.17490000
C       -1.10640000      -5.95300000      -1.15320000
H        1.02750000       1.77580000      -0.00850000
H       -0.47780000       1.80030000      -0.96650000
H       -0.55430000       1.85850000       0.81340000
H       -1.87660000      -0.18510000       0.82190000
H       -1.80480000      -0.24350000      -0.94870000
H       -0.53670000      -2.40060000      -0.82720000
H       -0.58200000      -2.33210000       0.93110000
H       -3.09250000      -2.47030000       0.87050000
H       -3.05660000      -2.49150000      -0.89040000
H       -1.75600000      -4.60410000       0.88640000
H       -3.65210000      -6.07400000       0.12860000
H       -4.24580000      -4.69110000       1.05200000
H       -4.37370000      -4.69520000      -0.72010000
H       -0.40660000      -6.06530000      -0.30980000
H       -1.84860000      -6.76270000      -1.09180000
H       -0.55010000      -6.06770000      -2.08720000
