20
Properties=species:S:1:pos:R:3 gdb_9764=T pbc="F F F"
C       -0.23500000       1.65140000       0.03880000
C        0.02910000       0.14310000       0.00740000
C       -1.29120000      -0.63910000      -0.01300000
O       -2.05280000      -0.28230000       1.13230000
C        0.90090000      -0.30930000      -1.20200000
C        2.00320000      -1.19040000      -0.56770000
O        1.55300000      -1.50300000       0.74250000
C        0.88230000      -0.34130000       1.20280000
H        0.70540000       2.21190000       0.06200000
H       -0.79300000       1.96990000      -0.84870000
H       -0.82450000       1.92590000       0.91730000
H       -1.83920000      -0.40380000      -0.94010000
H       -1.06330000      -1.71560000      -0.01810000
H       -2.83120000      -0.84500000       1.16600000
H        0.30480000      -0.87230000      -1.92740000
H        1.32700000       0.54740000      -1.73040000
H        2.17990000      -2.13040000      -1.09690000
H        2.95670000      -0.63970000      -0.52140000
H        1.60710000       0.43660000       1.49750000
H        0.28000000      -0.61020000       2.07260000
