19
Properties=species:S:1:pos:R:3 gdb_65131=T pbc="F F F"
O        0.60460000       0.62300000      -1.10820000
C        0.15460000       0.10150000       0.12220000
C        1.20510000      -0.48800000       1.03260000
C        0.62730000       0.88370000       1.31190000
C       -1.21290000      -0.54070000       0.04310000
C       -2.36750000      -0.27820000       1.05610000
C       -2.55820000       1.15340000       0.49510000
C       -2.40160000       0.15900000      -0.67590000
O       -3.31740000      -0.77000000       0.03280000
H        0.75600000      -0.11920000      -1.70460000
H        0.92370000      -1.30870000       1.68460000
H        2.21730000      -0.53300000       0.64660000
H        1.25480000       1.74250000       1.10310000
H       -0.03610000       0.99830000       2.16140000
H       -1.15620000      -1.59910000      -0.23230000
H       -2.49240000      -0.65200000       2.07330000
H       -3.56400000       1.55630000       0.61800000
H       -1.77430000       1.89340000       0.65580000
H       -2.56360000       0.30960000      -1.74290000
