17
Properties=species:S:1:pos:R:3 gdb_31253=T pbc="F F F"
C       -0.28030000       1.32550000      -0.18980000
N        0.13730000      -0.05090000       0.04440000
C        0.67430000      -0.78430000      -0.98330000
C        0.74330000      -2.12760000      -1.23380000
C        0.15380000      -3.23270000      -0.41990000
O       -1.11360000      -2.86220000       0.14040000
N        1.47790000      -2.31520000      -2.40320000
C        1.80280000      -1.13130000      -2.78820000
O        1.34210000      -0.12970000      -1.97110000
H        0.57220000       1.91460000      -0.53460000
H       -1.08490000       1.42080000      -0.93470000
H       -0.62660000       1.74860000       0.75550000
H       -0.51990000      -0.61860000       0.56520000
H        0.07950000      -4.13870000      -1.03570000
H        0.77360000      -3.48120000       0.45010000
H       -1.70880000      -2.70140000      -0.60040000
H        2.36480000      -0.82110000      -3.65330000
