22
Properties=species:S:1:pos:R:3 gdb_57493=T pbc="F F F"
C       -0.20340000       1.53880000       0.03700000
C        0.00490000       0.01180000       0.04650000
C        0.80400000      -0.41550000       1.29300000
C       -1.36030000      -0.69430000       0.04290000
N        0.69770000      -0.42170000      -1.18350000
C        1.84000000      -0.03500000      -1.49780000
C        2.77060000      -0.30550000      -2.66510000
C        3.71880000       0.65840000      -1.92550000
O        2.73300000       0.83200000      -0.86480000
H        0.75270000       2.06670000       0.05910000
H       -0.74680000       1.84330000      -0.86310000
H       -0.79030000       1.84760000       0.90840000
H        0.24860000      -0.16770000       2.20370000
H        0.97490000      -1.49670000       1.28370000
H        1.77290000       0.08750000       1.33110000
H       -1.93270000      -0.41580000      -0.84690000
H       -1.22920000      -1.78040000       0.03010000
H       -1.94270000      -0.42430000       0.93010000
H        3.10810000      -1.33990000      -2.74960000
H        2.39960000       0.03520000      -3.63320000
H        4.64270000       0.22530000      -1.53400000
H        3.93000000       1.60840000      -2.42280000
