13
Properties=species:S:1:pos:R:3 gdb_128666=T pbc="F F F"
C       -0.01500000       1.34850000       0.01120000
O        0.02510000      -0.08560000      -0.04100000
C        0.62410000      -0.61590000      -1.09080000
N        0.72910000      -1.91970000      -1.25880000
N        1.39250000      -1.96720000      -2.42930000
C        1.74200000      -3.20910000      -3.02990000
O        2.32810000      -3.30030000      -4.06330000
N        1.67610000      -0.76350000      -2.94560000
N        1.19660000       0.10420000      -2.11100000
H        0.99600000       1.76380000       0.02950000
H       -0.55400000       1.75240000      -0.84980000
H       -0.54070000       1.58800000       0.93480000
H        1.38800000      -4.03530000      -2.39470000
