13
Properties=species:S:1:pos:R:3 gdb_42165=T pbc="F F F"
O        0.00330000      -0.06320000      -0.28790000
C       -0.07020000       1.12690000      -0.13270000
C        1.12440000       1.94460000       0.14330000
N        2.10500000       2.52240000       0.34520000
C       -1.37830000       1.93630000      -0.15040000
O       -1.36550000       3.10340000       0.17110000
N       -2.45360000       1.24020000      -0.62280000
C       -3.05760000       0.02960000      -0.10490000
C       -3.80910000       1.33140000      -0.13510000
H       -3.27440000      -0.73860000      -0.84020000
H       -2.70710000      -0.33570000       0.85560000
H       -3.95840000       1.86620000       0.79860000
H       -4.57080000       1.49100000      -0.89190000
