20
Properties=species:S:1:pos:R:3 gdb_60362=T pbc="F F F"
C        0.02710000       1.57060000       0.06070000
C        0.01230000       0.04270000       0.04060000
O        0.72150000      -0.49860000       1.15380000
C       -1.41210000      -0.52290000      -0.04350000
C       -1.43480000      -2.05160000      -0.11330000
C       -2.86530000      -2.61270000      -0.14820000
O       -3.63030000      -2.13660000      -1.24280000
C       -2.84610000      -4.09110000      -0.12490000
N       -2.81530000      -5.24620000      -0.13940000
H        1.05370000       1.93890000       0.13580000
H       -0.42690000       1.98480000      -0.84520000
H       -0.53870000       1.95320000       0.91980000
H        0.57930000      -0.30690000      -0.83210000
H        0.34280000      -0.11800000       1.95440000
H       -1.97820000      -0.18580000       0.83810000
H       -1.92460000      -0.10280000      -0.91540000
H       -0.89960000      -2.40030000      -1.00690000
H       -0.90300000      -2.46990000       0.74680000
H       -3.40730000      -2.27470000       0.74290000
H       -3.23110000      -2.46980000      -2.05500000
