22
Properties=species:S:1:pos:R:3 gdb_63031=T pbc="F F F"
C       -0.02100000       1.43040000      -0.05230000
C       -0.03590000      -0.08770000      -0.04840000
C       -1.30080000      -0.67540000       0.54500000
C        0.73740000      -0.73540000      -1.13740000
N        1.31850000      -0.61040000       0.27420000
C        1.24490000      -2.11320000       0.38940000
C        0.74120000      -2.24240000      -1.05030000
C       -0.19040000      -3.23760000      -1.68350000
C        1.26370000      -3.17990000      -2.09470000
H        0.93290000       1.80720000      -0.42940000
H       -0.82860000       1.82670000      -0.67770000
H       -0.15650000       1.81720000       0.96350000
H       -2.17560000      -0.21940000       0.06930000
H       -1.38180000      -1.75420000       0.41020000
H       -1.35790000      -0.45370000       1.61720000
H        1.14620000      -0.16800000      -1.97080000
H        2.25190000      -2.51080000       0.54040000
H        0.59650000      -2.47410000       1.19450000
H       -0.51630000      -4.08180000      -1.08390000
H       -0.93660000      -2.87270000      -2.38200000
H        1.50130000      -2.77240000      -3.07260000
H        1.92000000      -3.98400000      -1.77650000
