21
Properties=species:S:1:pos:R:3 gdb_87570=T pbc="F F F"
C        0.08630000       1.93120000       0.67150000
C       -0.01410000       0.43370000       0.51480000
N        1.23000000      -0.28200000       0.14920000
C        0.62620000      -0.51770000       1.45320000
C        1.34480000      -0.28340000       2.76090000
C        0.37600000      -0.35170000       3.87250000
N        0.87930000      -1.62240000       3.31480000
C        0.15150000      -1.87260000       2.00710000
C       -1.32180000      -2.23180000       2.08780000
H        1.02360000       2.20390000       1.16330000
H        0.05980000       2.42910000      -0.30360000
H       -0.74470000       2.31760000       1.27170000
H       -0.93240000       0.08110000       0.04460000
H        1.03240000      -1.05620000      -0.48150000
H        2.36970000       0.05540000       2.86530000
H        0.73960000      -0.17180000       4.87950000
H       -0.65520000      -0.05050000       3.70640000
H        0.69730000      -2.68340000       1.51010000
H       -1.91890000      -1.44530000       2.55750000
H       -1.72870000      -2.40320000       1.08510000
H       -1.45450000      -3.15320000       2.66410000
