19
Properties=species:S:1:pos:R:3 gdb_93726=T pbc="F F F"
C       -0.44850000       1.42660000       0.20970000
N        0.12080000       0.09550000       0.00790000
C       -0.86630000      -0.91200000      -0.39200000
C       -1.50340000      -1.42080000       0.92100000
C       -0.32430000      -1.38820000       1.92300000
O        0.14610000      -2.72010000       2.08380000
C        0.74400000      -0.46850000       1.19600000
C       -0.71140000      -0.83670000       3.23280000
N       -0.97660000      -0.39780000       4.26960000
H        0.34650000       2.11840000       0.50210000
H       -0.86880000       1.78310000      -0.73520000
H       -1.24050000       1.47930000       0.97720000
H       -1.59270000      -0.49240000      -1.09130000
H       -0.34850000      -1.73680000      -0.89610000
H       -2.30180000      -0.75250000       1.25060000
H       -1.90620000      -2.43330000       0.86210000
H        0.90350000      -2.70870000       2.68050000
H        1.55560000      -1.14830000       0.90810000
H        1.15160000       0.31130000       1.84200000
