18
Properties=species:S:1:pos:R:3 gdb_9288=T pbc="F F F"
C        0.05820000       1.56950000       0.31410000
C        0.01370000       0.05390000       0.10260000
C        0.90060000      -0.71350000       1.08830000
O        0.55090000      -0.46310000       2.44540000
C        0.89340000      -2.21790000       0.80670000
O        1.85520000      -2.89360000       1.61460000
C        1.45560000      -3.34340000       2.82170000
O        2.20910000      -3.83150000       3.60760000
H        1.06620000       1.95910000       0.13770000
H       -0.62500000       2.08230000      -0.36880000
H       -0.21980000       1.82790000       1.33920000
H       -1.02080000      -0.30900000       0.20080000
H        0.32500000      -0.19290000      -0.91990000
H        1.93640000      -0.36370000       1.00070000
H       -0.40190000      -0.58210000       2.53590000
H       -0.11100000      -2.63160000       0.98060000
H        1.17060000      -2.42340000      -0.23080000
H        0.36650000      -3.23480000       2.98080000
