16
Properties=species:S:1:pos:R:3 gdb_131488=T pbc="F F F"
O        0.10800000       1.43100000       0.17850000
C        0.01630000       0.05260000       0.07860000
C       -0.47110000      -0.80490000       1.20250000
C       -1.33460000      -0.65580000      -0.05230000
C       -2.56330000       0.14460000      -0.01050000
N       -2.66930000       1.26920000       0.69680000
N       -3.92770000       1.68350000       0.40490000
C       -4.51460000       0.81280000      -0.43530000
N       -3.68680000      -0.17110000      -0.72510000
H       -0.73930000       1.76670000       0.51410000
H        0.81620000      -0.33540000      -0.54410000
H       -0.00730000      -1.76940000       1.38010000
H       -0.83150000      -0.29550000       2.09010000
H       -1.40220000      -1.50200000      -0.72480000
H       -4.29140000       2.52530000       0.81970000
H       -5.52450000       0.93170000      -0.79830000
