14
Properties=species:S:1:pos:R:3 gdb_123380=T pbc="F F F"
C        0.30350000      -0.33200000      -1.09170000
C        0.13820000       0.46550000      -0.20810000
C       -0.02050000       1.42690000       0.88570000
N        1.18620000       2.20010000       1.18340000
C        1.49310000       3.28060000       0.39460000
N        2.72280000       3.77800000       0.26890000
N        2.47330000       4.83040000      -0.51490000
N        1.21430000       4.98320000      -0.86300000
N        0.56230000       3.99990000      -0.29110000
H        0.43740000      -1.02910000      -1.88170000
H       -0.81620000       2.13820000       0.64940000
H       -0.31880000       0.90190000       1.79950000
H        1.99570000       1.64270000       1.41740000
H        3.19790000       5.45950000      -0.82490000
