26
Properties=species:S:1:pos:R:3 gdb_58242=T pbc="F F F"
C       -1.11080000       0.44080000       3.61010000
C       -0.88750000      -0.86090000       2.82350000
C       -1.00420000      -2.06030000       3.77720000
C       -1.83460000      -0.97580000       1.59730000
C       -1.69940000       0.23530000       0.65490000
C       -1.55970000      -2.25210000       0.81140000
C       -2.24360000      -3.54720000       1.09350000
N       -2.49030000      -2.84520000      -0.15840000
C       -3.82080000      -2.29000000      -0.35610000
H       -0.45980000       0.47130000       4.48980000
H       -0.89930000       1.33310000       3.01630000
H       -2.14640000       0.51110000       3.96550000
H        0.14170000      -0.84290000       2.43350000
H       -2.02520000      -2.15360000       4.16720000
H       -0.74530000      -3.00330000       3.29130000
H       -0.33650000      -1.93200000       4.63550000
H       -2.86290000      -1.00640000       1.98160000
H       -2.30600000       0.10400000      -0.24460000
H       -2.01590000       1.16550000       1.13260000
H       -0.65850000       0.36020000       0.33290000
H       -0.52770000      -2.30650000       0.45820000
H       -1.71370000      -4.49460000       1.02230000
H       -3.03250000      -3.53000000       1.84610000
H       -4.29510000      -1.88320000       0.55090000
H       -3.78240000      -1.49660000      -1.10930000
H       -4.46940000      -3.08360000      -0.74170000
