17
Properties=species:S:1:pos:R:3 gdb_67152=T pbc="F F F"
C       -0.00010000       1.60380000      -0.05010000
C       -0.03080000       0.10970000      -0.04950000
C        0.55150000      -0.91670000      -1.05720000
C        1.45590000      -1.42400000       0.08130000
N        0.61840000      -0.67700000       1.10600000
C       -0.64720000      -1.38010000       1.30020000
N       -1.07370000      -2.12240000       2.21960000
C       -1.25070000      -0.85450000       0.01070000
O       -0.70290000      -1.63330000      -1.09410000
H        1.03050000       1.97320000      -0.05700000
H       -0.51490000       2.00270000      -0.93010000
H       -0.49150000       1.99750000       0.84550000
H        0.95100000      -0.73570000      -2.05720000
H        1.51410000      -2.50420000       0.23500000
H        2.46230000      -0.99450000       0.05220000
H       -0.34870000      -2.26520000       2.92890000
H       -2.31450000      -0.64490000      -0.10730000
