19
Properties=species:S:1:pos:R:3 gdb_88228=T pbc="F F F"
C       -0.47150000       1.34450000       0.22100000
C        0.03810000      -0.06560000       0.03980000
C        1.46930000      -0.33350000      -0.31620000
C        0.96120000      -0.71270000       1.07200000
C        1.40270000       0.00880000       2.22710000
C        1.76350000       0.60930000       3.21000000
C        2.22410000       1.28970000       4.38750000
C        2.15260000       2.75850000       4.52280000
O        1.24260000       1.92730000       5.22850000
H        0.28620000       1.98020000       0.68700000
H       -0.73990000       1.78610000      -0.74470000
H       -1.35970000       1.36510000       0.86090000
H       -0.68650000      -0.75650000      -0.38290000
H        1.70620000      -1.14320000      -0.99730000
H        2.14210000       0.51530000      -0.36960000
H        0.80210000      -1.77440000       1.23800000
H        3.00310000       0.77560000       4.95000000
H        2.89660000       3.27310000       5.13030000
H        1.72480000       3.34080000       3.70860000
