18
Properties=species:S:1:pos:R:3 gdb_56675=T pbc="F F F"
C        0.04080000       1.50790000      -0.10860000
C       -0.04430000      -0.02370000       0.02960000
C        0.69830000      -0.48500000       1.20950000
N        1.29300000      -0.85610000       2.12810000
C       -1.49620000      -0.53440000       0.08730000
O       -2.12270000       0.12080000       1.15290000
C       -2.19320000      -0.55110000      -1.30080000
O       -1.97820000      -1.96950000      -1.41650000
C       -1.62010000      -2.07580000      -0.02410000
H        1.08250000       1.82950000      -0.17340000
H       -0.47570000       1.83060000      -1.01690000
H       -0.42700000       1.99280000       0.74910000
H        0.42250000      -0.49450000      -0.84430000
H       -3.00940000      -0.23770000       1.26400000
H       -3.26070000      -0.29270000      -1.23770000
H       -1.73620000       0.00890000      -2.12390000
H       -0.72080000      -2.67870000       0.13690000
H       -2.44040000      -2.48140000       0.58690000
