16
Properties=species:S:1:pos:R:3 gdb_47342=T pbc="F F F"
N       -0.05360000       1.32040000       0.15370000
C       -0.00830000       0.07250000      -0.03850000
C       -1.26270000      -0.77080000      -0.07070000
C       -1.11370000      -1.96850000      -1.02620000
O        0.11620000      -2.63510000      -0.71670000
C        1.19220000      -1.78680000      -0.93880000
O        1.17540000      -0.61330000      -0.12180000
C       -2.21540000      -2.91300000      -0.91350000
C       -3.15260000      -3.65660000      -0.81450000
H        0.89390000       1.70370000       0.18750000
H       -1.43400000      -1.16690000       0.93610000
H       -2.11120000      -0.14100000      -0.33910000
H       -1.06030000      -1.60140000      -2.06550000
H        2.10110000      -2.32710000      -0.67260000
H        1.22750000      -1.46800000      -1.99430000
H       -3.97530000      -4.32370000      -0.73100000
