15
Properties=species:S:1:pos:R:3 gdb_11484=T pbc="F F F"
O       -0.56140000       0.03880000      -1.11240000
C       -0.00870000       0.98460000      -0.59680000
C        1.42230000       1.39020000      -0.92730000
C        2.39040000       0.97830000       0.17020000
C        3.59090000       1.80350000       0.45330000
N        2.48770000       1.73760000       1.42560000
C       -0.67930000       1.80360000       0.40260000
C       -1.23100000       2.49930000       1.21610000
H        1.68860000       0.89870000      -1.86800000
H        1.46750000       2.47700000      -1.06790000
H        2.45860000      -0.09810000       0.31470000
H        4.51440000       1.33040000       0.77460000
H        3.72710000       2.71240000      -0.12800000
H        1.91480000       2.57630000       1.37170000
H       -1.73410000       3.09660000       1.93780000
