14
Properties=species:S:1:pos:R:3 gdb_66404=T pbc="F F F"
N       -0.09770000       1.50970000       0.10970000
C       -0.04740000       0.10880000      -0.04200000
C       -1.13380000      -0.94220000      -0.11380000
O       -0.38020000      -1.72580000      -1.06720000
C        0.61340000      -0.74750000      -1.11540000
O        1.54140000      -0.68890000      -1.85040000
C       -0.36190000      -0.81900000       1.16410000
C        0.53120000      -1.82430000       1.66160000
C        1.28110000      -2.65870000       2.09220000
H        0.73520000       1.86270000       0.56980000
H       -0.18280000       1.97950000      -0.78580000
H       -2.20370000      -0.87480000      -0.24860000
H       -0.89310000      -0.24360000       1.92060000
H        1.94350000      -3.40180000       2.46230000
