20
Properties=species:S:1:pos:R:3 gdb_70095=T pbc="F F F"
C       -0.07130000       1.49610000       0.01720000
C        0.03010000      -0.01000000      -0.00770000
C       -0.54990000      -0.81610000       1.13180000
C        0.95580000      -0.78620000       0.91740000
C        1.50220000      -1.90690000       0.09840000
C        1.00500000      -1.89670000      -1.14170000
C        0.09290000      -0.73580000      -1.34930000
C       -1.06170000      -0.74190000      -2.28940000
N        0.17100000      -0.02320000      -2.64440000
H        0.76580000       1.96930000      -0.50860000
H       -1.00390000       1.84820000      -0.44270000
H       -0.06350000       1.86680000       1.04630000
H       -0.94940000      -0.25500000       1.97160000
H       -1.07010000      -1.74350000       0.91570000
H        1.57820000      -0.29020000       1.65500000
H        2.18540000      -2.64760000       0.49720000
H        1.20000000      -2.62060000      -1.92320000
H       -1.27220000      -1.61980000      -2.89500000
H       -1.94230000      -0.17070000      -2.00220000
H        0.04400000       0.97560000      -2.50000000
