23
Properties=species:S:1:pos:R:3 gdb_91928=T pbc="F F F"
C        0.03030000       1.57720000      -0.04720000
C        0.05600000       0.04310000      -0.02660000
C       -1.38830000      -0.49510000       0.00590000
C        0.77250000      -0.56380000      -1.23800000
C        2.28030000      -0.52610000      -1.29250000
C        1.57550000      -1.76260000      -0.78710000
C        1.39550000      -1.89970000       0.71690000
C        0.83150000      -0.53810000       1.19690000
O        1.86700000       0.37170000       1.57020000
H        1.03760000       1.99240000      -0.09620000
H       -0.53220000       1.93020000      -0.91870000
H       -0.45510000       1.97880000       0.84880000
H       -1.93210000      -0.18980000      -0.89440000
H       -1.41410000      -1.58880000       0.05120000
H       -1.93410000      -0.10640000       0.87250000
H        0.22790000      -0.57720000      -2.17730000
H        2.73350000      -0.58880000      -2.27650000
H        2.81440000       0.09300000      -0.58230000
H        1.62320000      -2.66710000      -1.38380000
H        0.67850000      -2.69960000       0.93560000
H        2.32090000      -2.14860000       1.25180000
H        0.14820000      -0.67050000       2.04810000
H        2.37760000      -0.04190000       2.27290000
