14
Properties=species:S:1:pos:R:3 gdb_131467=T pbc="F F F"
O        0.22120000       1.42740000      -0.19730000
C        0.04260000       0.03220000      -0.04340000
C        0.61640000      -0.54330000       1.26490000
C       -0.27970000      -1.30610000       1.91890000
C       -1.50280000      -1.26570000       1.12300000
C       -1.37510000      -0.48800000       0.01170000
C       -2.64350000      -0.59640000      -0.59640000
N       -3.45910000      -1.36400000       0.10270000
O       -2.70980000      -1.80700000       1.22200000
H       -0.28130000       1.86200000       0.50120000
H        0.58570000      -0.41800000      -0.88540000
H        1.63110000      -0.32980000       1.57580000
H       -0.14110000      -1.84160000       2.84750000
H       -3.02430000      -0.15140000      -1.50520000
