17
Properties=species:S:1:pos:R:3 gdb_6171=T pbc="F F F"
C       -0.27280000       1.51980000      -0.00030000
C        0.02400000       0.04080000      -0.02490000
O       -1.01010000      -0.75630000      -0.53790000
C        1.37570000      -0.48190000      -0.34050000
C        0.85540000      -0.63700000       1.08370000
C        1.51210000       0.15440000       2.16470000
N        1.36290000      -0.36150000       3.42480000
O        2.11560000       1.19760000       1.96810000
H        0.56610000       2.07650000       0.41780000
H       -0.47670000       1.87130000      -1.01680000
H       -1.15850000       1.72740000       0.61410000
H       -1.81100000      -0.55200000      -0.04210000
H        1.43890000      -1.37860000      -0.94540000
H        2.17610000       0.23970000      -0.45760000
H        0.48490000      -1.62120000       1.35130000
H        1.01940000      -1.29370000       3.57620000
H        1.87930000       0.08110000       4.16780000
