20
Properties=species:S:1:pos:R:3 gdb_6124=T pbc="F F F"
C       -1.00620000       1.08500000      -0.30450000
C       -0.01300000      -0.06810000      -0.36780000
C        1.00960000      -0.17010000      -1.54570000
C        2.18450000      -0.43570000      -0.53970000
C        2.56100000      -1.92030000      -0.43530000
C        3.42330000       0.44890000      -0.65940000
C        1.19990000      -0.01880000       0.57590000
O        1.34970000       0.34220000       1.70920000
H       -0.50310000       2.04610000      -0.45350000
H       -1.77900000       0.98530000      -1.07320000
H       -1.49760000       1.11520000       0.67260000
H       -0.53570000      -1.02320000      -0.22910000
H        0.82340000      -0.95720000      -2.27900000
H        1.12370000       0.78260000      -2.07070000
H        3.10460000      -2.23640000      -1.33260000
H        3.20290000      -2.09790000       0.43330000
H        1.67750000      -2.55970000      -0.33690000
H        3.15460000       1.50670000      -0.74100000
H        4.06240000       0.33510000       0.22190000
H        4.01060000       0.17860000      -1.54410000
