18
Properties=species:S:1:pos:R:3 gdb_17978=T pbc="F F F"
C        0.06630000      -1.22310000       0.16890000
C        0.02930000      -0.02350000       0.07810000
C        0.00430000       1.42260000      -0.00290000
C       -0.36240000       2.24580000       1.28390000
C        0.87820000       3.15670000       1.06400000
C        2.12070000       2.76730000       1.89940000
C        2.49500000       1.69300000       0.83160000
C        1.35380000       2.20450000      -0.09080000
H        0.09000000      -2.28220000       0.23920000
H       -0.64410000       1.72870000      -0.83060000
H       -1.33270000       2.74330000       1.22870000
H       -0.32560000       1.66070000       2.20610000
H        0.67180000       4.21750000       0.91630000
H        2.85800000       3.57270000       1.95660000
H        1.92550000       2.41070000       2.91540000
H        3.49640000       1.80430000       0.41030000
H        2.37450000       0.65390000       1.14800000
H        1.64620000       2.54880000      -1.08350000
