19
Properties=species:S:1:pos:R:3 gdb_32749=T pbc="F F F"
C       -0.08010000       1.44090000       0.05700000
C        0.27240000      -0.03220000      -0.01030000
O        0.19810000      -0.56100000       1.32750000
C        0.52480000      -1.85150000       1.46950000
C        1.37830000      -2.46070000       2.33730000
C        2.26370000      -1.79100000       3.34000000
C        1.22650000      -3.86960000       2.07210000
C        0.31780000      -3.99080000       1.07480000
O       -0.13380000      -2.75730000       0.69240000
H        0.61980000       1.97790000       0.70330000
H       -0.03860000       1.88190000      -0.94320000
H       -1.08970000       1.57650000       0.45460000
H       -0.42410000      -0.57900000      -0.65530000
H        1.28850000      -0.18560000      -0.39780000
H        1.99770000      -2.06740000       4.36710000
H        3.31600000      -2.06220000       3.19620000
H        2.17960000      -0.70450000       3.25560000
H        1.74410000      -4.67780000       2.56660000
H       -0.09820000      -4.82570000       0.53680000
