16
Properties=species:S:1:pos:R:3 gdb_7061=T pbc="F F F"
C        0.00010000       1.48590000      -0.03820000
N        0.00820000       0.02570000      -0.02970000
C        0.72950000      -0.52600000       1.12150000
C        2.14380000      -0.16620000       1.12620000
C        3.30930000       0.12230000       1.15510000
C       -1.33510000      -0.53350000      -0.09040000
C       -2.01100000      -0.20520000      -1.35080000
N       -2.56140000       0.05250000      -2.33280000
H        1.02920000       1.84920000      -0.03240000
H       -0.48940000       1.84320000      -0.94730000
H       -0.52750000       1.91330000       0.83500000
H        0.27590000      -0.20930000       2.08240000
H        0.64230000      -1.61920000       1.08350000
H        4.34130000       0.37300000       1.17300000
H       -1.27140000      -1.62540000      -0.01890000
H       -1.98740000      -0.19630000       0.74000000
