21
Properties=species:S:1:pos:R:3 gdb_120188=T pbc="F F F"
C       -0.08320000       1.61910000       0.29480000
C       -0.07210000       0.10390000       0.21260000
C        1.13390000      -0.60610000      -0.46680000
O        1.98800000      -0.19440000       0.67260000
C        0.73120000      -0.70480000       1.27240000
C        0.82660000      -1.92270000       0.31100000
C       -0.33460000      -2.85580000       0.00330000
C       -0.05450000      -3.74070000      -1.20780000
O       -1.16760000      -4.60380000      -1.37930000
H        0.90960000       1.99650000       0.54670000
H       -0.39300000       2.05760000      -0.66010000
H       -0.79220000       1.96180000       1.05640000
H       -1.05710000      -0.29730000      -0.03830000
H        1.54400000      -0.46800000      -1.46900000
H        0.65570000      -0.68950000       2.36130000
H        1.75070000      -2.47930000       0.49390000
H       -0.51190000      -3.50740000       0.86780000
H       -1.26950000      -2.31690000      -0.17510000
H        0.10450000      -3.11240000      -2.09970000
H        0.87390000      -4.31180000      -1.04400000
H       -0.99580000      -5.17090000      -2.13660000
