17
Properties=species:S:1:pos:R:3 gdb_35318=T pbc="F F F"
C        0.01650000      -1.24370000       0.11030000
C        0.01240000      -0.04350000       0.04400000
C        0.01590000       1.41370000      -0.03150000
C       -0.71100000       2.12010000       1.15740000
C        0.17920000       3.31490000       1.50530000
C       -0.32210000       4.65950000       1.83640000
O        0.17240000       3.79120000       2.85720000
C        1.48220000       3.06620000       0.83540000
C        1.41080000       2.02800000       0.00650000
H        0.01930000      -2.30390000       0.16970000
H       -0.46750000       1.70180000      -0.97660000
H       -1.73630000       2.40100000       0.90940000
H       -0.74420000       1.45070000       2.02070000
H        0.29020000       5.53730000       1.62940000
H       -1.39700000       4.83970000       1.85160000
H        2.35070000       3.68790000       1.01650000
H        2.21240000       1.64420000      -0.61260000
