17
Properties=species:S:1:pos:R:3 gdb_38234=T pbc="F F F"
C        0.00580000       1.78690000      -0.02710000
C        1.46280000       1.45870000       0.08620000
O        1.04240000       0.25840000       0.93260000
C       -0.00700000       0.22060000      -0.12480000
C       -1.34660000      -0.20390000      -0.72830000
O       -1.10180000       0.47530000      -2.01600000
C        0.30370000       0.39400000      -2.30790000
C        1.67650000       0.91830000      -1.37340000
C        0.93550000      -0.33990000      -1.25850000
H       -0.45030000       2.04630000       0.93060000
H       -0.34770000       2.41010000      -0.84390000
H        2.23320000       2.05180000       0.57730000
H       -1.48900000      -1.27750000      -0.88790000
H       -2.23660000       0.25060000      -0.29270000
H        0.48860000       0.35030000      -3.37480000
H        2.59880000       1.03400000      -1.93390000
H        1.27400000      -1.36810000      -1.16110000
