17
Properties=species:S:1:pos:R:3 gdb_131339=T pbc="F F F"
O        0.05360000       1.33620000       0.03110000
C        0.06040000      -0.01300000       0.07140000
N        0.09790000      -0.74050000      -1.03300000
N        0.09180000      -2.02230000      -0.56820000
C        0.05130000      -2.10260000       0.78650000
C        0.02970000      -0.79710000       1.24490000
C        0.03620000      -3.36900000       1.53950000
C       -0.69230000      -4.59440000       1.02120000
C        0.80890000      -4.58550000       1.06620000
H        0.08010000       1.58850000      -0.90040000
H        0.11560000      -2.77250000      -1.23530000
H       -0.00300000      -0.46110000       2.26750000
H        0.00320000      -3.21550000       2.61210000
H       -1.23010000      -5.20330000       1.73900000
H       -1.18220000      -4.51400000       0.05650000
H        1.35470000      -4.49900000       0.13250000
H        1.30990000      -5.18840000       1.81510000
