19
Properties=species:S:1:pos:R:3 gdb_102356=T pbc="F F F"
C        0.13080000       1.53870000      -0.03390000
C        0.00220000       0.01640000       0.04970000
C       -1.46950000      -0.51030000       0.04760000
C       -2.24280000      -0.03370000      -1.20820000
O       -1.45910000      -0.33140000      -2.35230000
C       -1.36550000      -2.04450000      -0.00270000
O       -1.56030000      -2.78540000       0.92170000
C       -2.18830000      -0.06900000       1.23790000
C       -2.79250000       0.32130000       2.20030000
H        1.18020000       1.83080000       0.06810000
H       -0.22350000       1.91620000      -0.99710000
H       -0.43560000       2.02900000       0.76320000
H        0.52530000      -0.44310000      -0.79440000
H        0.47430000      -0.35000000       0.96690000
H       -3.21710000      -0.54310000      -1.24050000
H       -2.43570000       1.04330000      -1.11720000
H       -1.97700000      -0.12920000      -3.13670000
H       -1.05890000      -2.41770000      -1.00220000
H       -3.32290000       0.64610000       3.06120000
