17
Properties=species:S:1:pos:R:3 gdb_77320=T pbc="F F F"
C       -0.47060000       1.33740000      -0.04160000
C        0.10750000      -0.06640000       0.09150000
C        0.89890000      -0.60920000      -1.11930000
C        1.83720000      -1.62750000      -0.43160000
O        2.09670000      -1.08360000       0.86910000
C        1.12720000      -0.19340000       1.22430000
O        1.12930000       0.37020000       2.27870000
C        0.09800000      -1.17460000      -2.19030000
C       -0.57270000      -1.65360000      -3.06510000
H        0.30850000       2.05860000      -0.30890000
H       -1.24480000       1.36490000      -0.81280000
H       -0.90590000       1.65310000       0.90940000
H       -0.69850000      -0.77620000       0.32370000
H        1.51340000       0.20920000      -1.51790000
H        1.35230000      -2.60440000      -0.32910000
H        2.79160000      -1.75250000      -0.94530000
H       -1.16180000      -2.07190000      -3.84370000
