16
Properties=species:S:1:pos:R:3 gdb_35520=T pbc="F F F"
N       -0.12160000      -1.17380000      -0.22940000
C       -0.06800000      -0.02510000      -0.11420000
C       -0.01750000       1.42330000       0.02240000
C       -0.57990000       1.97400000       1.38150000
C        0.64910000       2.75350000       1.89560000
C        1.74860000       1.75930000       2.30960000
O        2.18860000       1.26930000       1.02680000
C        1.43320000       2.00610000       0.08730000
O        1.21670000       3.26670000       0.67410000
H       -0.54590000       1.87110000      -0.82380000
H       -1.42360000       2.64250000       1.20530000
H       -0.89750000       1.17930000       2.05830000
H        0.44910000       3.56550000       2.59180000
H        2.58460000       2.24970000       2.81880000
H        1.37860000       0.93170000       2.92220000
H        1.96900000       2.08220000      -0.85720000
