16
Properties=species:S:1:pos:R:3 gdb_28251=T pbc="F F F"
O        0.12150000       0.10070000       0.09520000
C       -0.07940000       1.28960000       0.05540000
C       -1.21630000       2.14840000       0.06930000
C       -0.74890000       3.46580000      -0.04970000
C        0.61570000       3.43890000      -0.13960000
C        1.26390000       4.75560000      -0.00110000
N        0.06130000       5.62590000      -0.39520000
H        0.10410000       6.55520000       0.03450000
H        0.06120000       5.72390000      -1.40870000
C       -1.22310000       4.86970000       0.01480000
O        1.11170000       2.19640000      -0.06480000
H       -2.22830000       1.78100000       0.09610000
H        1.55010000       5.09350000       1.01720000
H        2.10170000       4.98900000      -0.67070000
H       -2.01970000       5.17260000      -0.67320000
H       -1.48420000       5.23130000       1.02080000
