17
Properties=species:S:1:pos:R:3 gdb_126318=T pbc="F F F"
C        0.09660000       1.55120000      -0.19030000
C        0.01500000       0.04350000       0.10440000
C       -1.38930000      -0.48340000       0.10290000
C       -2.14720000      -0.90010000       1.16210000
N       -3.37610000      -1.27850000       0.66610000
C       -4.44460000      -1.77230000       1.42570000
O       -5.50930000      -2.09990000       0.99030000
N       -3.44740000      -1.12420000      -0.68440000
C       -2.26450000      -0.65020000      -1.01760000
H        1.13680000       1.89060000      -0.19180000
H       -0.33650000       1.78710000      -1.16740000
H       -0.45060000       2.12690000       0.56240000
H        0.60850000      -0.50070000      -0.64060000
H        0.47830000      -0.16510000       1.07480000
H       -1.92700000      -0.96620000       2.21640000
H       -4.16330000      -1.81680000       2.49450000
H       -2.05170000      -0.43810000      -2.05700000
