16
Properties=species:S:1:pos:R:3 gdb_24558=T pbc="F F F"
N        0.11310000       1.20550000      -0.43630000
C        0.84270000       2.26280000       0.07600000
C        1.90240000       2.31720000       0.90750000
C        2.59930000       1.34520000       1.72920000
N        2.18080000       0.55500000       2.64980000
C        0.88400000       0.35610000       3.04360000
C       -0.19470000      -0.12040000       2.37700000
N       -0.33210000      -0.62090000       1.10720000
C       -0.18000000      -0.08850000      -0.03390000
H       -0.24430000       1.39650000      -1.36040000
H        0.57120000       3.18990000      -0.42230000
H        2.38410000       3.29400000       0.91980000
H        3.68940000       1.40250000       1.63870000
H        0.76890000       0.40260000       4.12580000
H       -1.03610000      -0.39760000       3.01130000
H       -0.41410000      -0.70910000      -0.90190000
