21
Properties=species:S:1:pos:R:3 gdb_114833=T pbc="F F F"
C       -0.04040000       1.66530000      -0.08420000
C       -0.12050000       0.13620000      -0.02510000
C        0.66500000      -0.52590000      -1.14910000
O        2.08030000      -0.24780000      -1.02610000
C        2.71180000      -1.51830000      -1.18360000
C        2.60840000      -2.28870000       0.14630000
C        1.10850000      -2.71420000       0.09080000
C        0.67880000      -2.06800000      -1.24360000
O        1.86020000      -2.24190000      -2.05150000
H        0.99960000       1.99600000      -0.01710000
H       -0.45340000       2.04690000      -1.02440000
H       -0.60030000       2.12190000       0.73730000
H        0.25750000      -0.21180000       0.94200000
H       -1.16810000      -0.18650000      -0.09550000
H        0.32050000      -0.12330000      -2.11330000
H        3.70140000      -1.38900000      -1.62130000
H        3.27990000      -3.15100000       0.15840000
H        2.84860000      -1.64450000       0.99400000
H        1.00280000      -3.79910000       0.02420000
H        0.52610000      -2.37230000       0.94780000
H       -0.18470000      -2.50820000      -1.74040000
