18
Properties=species:S:1:pos:R:3 gdb_32089=T pbc="F F F"
C        0.02600000       1.53950000      -0.11600000
C       -0.03260000       0.00660000       0.00900000
C        0.68710000      -0.49800000       1.23700000
C        2.07940000      -0.67470000       1.23910000
C        2.69870000      -1.10630000       2.40010000
N        2.04360000      -1.37060000       3.53860000
C        0.72730000      -1.20190000       3.52690000
O        0.05960000      -1.46950000       4.66990000
C        0.00000000      -0.77140000       2.41220000
H        1.06130000       1.88960000      -0.17360000
H       -0.49750000       1.87520000      -1.01630000
H       -0.44010000       2.02000000       0.74960000
H       -1.07870000      -0.31640000       0.04000000
H        0.41310000      -0.44610000      -0.88420000
H        2.66450000      -0.48250000       0.34640000
H        3.77530000      -1.25510000       2.42880000
H        0.73220000      -1.75020000       5.30620000
H       -1.07620000      -0.66360000       2.48370000
