20
Properties=species:S:1:pos:R:3 gdb_113420=T pbc="F F F"
C       -0.08430000       1.54550000      -0.60660000
C       -0.00980000       0.23450000       0.17110000
N       -1.30890000      -0.43340000       0.17600000
C       -1.58680000      -1.34570000      -0.93700000
C       -1.34920000      -1.85760000       0.43470000
C       -0.19350000      -2.77490000       0.89600000
C       -1.22950000      -3.50690000       1.77510000
O       -1.18230000      -4.48830000       2.45620000
C       -2.34770000      -2.51520000       1.40350000
H        0.87880000       2.06420000      -0.58220000
H       -0.34470000       1.36340000      -1.65440000
H       -0.84650000       2.20260000      -0.17890000
H        0.78440000      -0.40650000      -0.25120000
H        0.26450000       0.43540000       1.21400000
H       -2.59220000      -1.30420000      -1.34890000
H       -0.79800000      -1.50800000      -1.67200000
H        0.29730000      -3.39750000       0.14260000
H        0.58040000      -2.27610000       1.49040000
H       -2.65040000      -1.87090000       2.23590000
H       -3.24260000      -2.97010000       0.96860000
