22
Properties=species:S:1:pos:R:3 gdb_13207=T pbc="F F F"
C        0.05120000       1.50700000       0.11380000
C       -0.07750000      -0.01870000       0.01540000
C       -1.54480000      -0.44730000      -0.02350000
O       -2.17020000      -0.02690000       1.18200000
C        0.67880000      -0.57500000      -1.18850000
C        2.22780000      -0.43050000      -1.23860000
C        2.30440000      -1.85050000      -1.86050000
C        0.86740000      -2.11420000      -1.33760000
H        1.09770000       1.81050000       0.21500000
H       -0.35070000       1.99020000      -0.78550000
H       -0.50400000       1.88500000       0.97510000
H        0.35640000      -0.46210000       0.92380000
H       -2.03450000       0.00480000      -0.90310000
H       -1.60990000      -1.54080000      -0.13760000
H       -3.09980000      -0.26750000       1.13860000
H        0.24540000      -0.16720000      -2.11170000
H        2.64850000       0.40190000      -1.80800000
H        2.65360000      -0.41000000      -0.22950000
H        2.33620000      -1.81230000      -2.95330000
H        3.10060000      -2.51440000      -1.51550000
H        0.87940000      -2.60630000      -0.35880000
H        0.17780000      -2.65750000      -1.98880000
