20
Properties=species:S:1:pos:R:3 gdb_66247=T pbc="F F F"
C       -0.12460000       1.53690000       0.36320000
C        0.04750000       0.05520000       0.04850000
O        0.87950000      -0.06010000      -1.10200000
C        1.79690000      -1.11650000      -0.86470000
C        2.00020000      -1.03790000       0.64730000
O        0.72690000      -0.60910000       1.11800000
C       -1.29520000      -0.62700000      -0.18560000
C       -1.48650000      -2.07640000       0.04970000
N       -2.09290000      -1.08650000       0.96030000
H        0.85020000       1.99020000       0.55750000
H       -0.58770000       2.04860000      -0.48480000
H       -0.76360000       1.66470000       1.24040000
H        1.37910000      -2.08720000      -1.16540000
H        2.70370000      -0.92360000      -1.44300000
H        2.24470000      -1.99630000       1.11330000
H        2.77510000      -0.30430000       0.90910000
H       -1.87970000      -0.14570000      -0.96670000
H       -2.19110000      -2.63110000      -0.56320000
H       -0.64300000      -2.65040000       0.41880000
H       -1.50760000      -1.03290000       1.79280000
