17
Properties=species:S:1:pos:R:3 gdb_48326=T pbc="F F F"
O       -0.51910000       0.50110000      -0.74260000
C        0.04700000       1.08620000       0.15240000
C        1.24790000       1.96040000       0.00080000
C        1.74890000       2.56240000       1.27060000
O        1.26280000       2.39120000       2.36100000
C        2.40550000       1.70730000      -0.98940000
C        1.91690000       1.06830000      -2.29700000
C        0.98740000       2.30500000      -2.51620000
C        1.51400000       2.89420000      -1.20010000
H       -0.30300000       1.01170000       1.20020000
H        2.64590000       3.21200000       1.13790000
H        3.41280000       1.66080000      -0.59090000
H        2.72220000       1.01990000      -3.03310000
H        1.43240000       0.09630000      -2.21820000
H        1.29980000       2.91200000      -3.36880000
H       -0.08280000       2.11220000      -2.57520000
H        1.69860000       3.94300000      -0.99600000
