20
Properties=species:S:1:pos:R:3 gdb_104352=T pbc="F F F"
C        0.23340000       1.38300000      -0.04120000
C       -0.11240000      -0.11770000      -0.04750000
C       -1.64070000      -0.32150000       0.00720000
O       -2.22740000       0.29880000       1.12630000
C        0.56090000      -0.87300000      -1.21300000
C        1.91050000      -1.36320000      -0.64000000
N        1.62630000      -1.45710000       0.78340000
C        0.52300000      -0.77570000       1.18920000
O        0.11000000      -0.69980000       2.33660000
H        1.31550000       1.55050000      -0.03060000
H       -0.17600000       1.86260000      -0.93680000
H       -0.20350000       1.86640000       0.83430000
H       -2.10080000       0.11910000      -0.88630000
H       -1.85420000      -1.40450000      -0.01650000
H       -1.70720000       0.00420000       1.89200000
H       -0.04730000      -1.73920000      -1.49610000
H        0.69370000      -0.25270000      -2.10200000
H        2.20970000      -2.33310000      -1.04870000
H        2.72220000      -0.65110000      -0.84120000
H        2.24300000      -1.88800000       1.45420000
