17
Properties=species:S:1:pos:R:3 gdb_7649=T pbc="F F F"
C       -0.43430000       1.44100000      -0.06880000
C        0.03830000      -0.00450000      -0.00840000
C        1.26750000      -0.33880000      -0.89810000
C        2.10620000      -0.36740000       0.41400000
N        0.84640000      -0.35380000       1.20110000
H        0.80710000       0.32410000       1.95600000
H        1.45790000      -2.13270000       1.62640000
C        2.94510000      -1.62300000       0.64290000
O        4.04230000      -1.77770000       0.17740000
O        2.31660000      -2.54650000       1.38470000
H        0.40560000       2.13940000       0.02050000
H       -0.93990000       1.64020000      -1.01950000
H       -1.14520000       1.65500000       0.73720000
H       -0.81740000      -0.67730000      -0.13070000
H        1.20960000      -1.30720000      -1.39730000
H        1.55320000       0.42180000      -1.62510000
H        2.75110000       0.50780000       0.53300000
