18
Properties=species:S:1:pos:R:3 gdb_107163=T pbc="F F F"
O        0.10290000       1.33760000      -0.42830000
C        0.06860000       0.01480000       0.08680000
C       -1.33600000      -0.48490000       0.23980000
C       -2.34960000      -0.09840000       1.33660000
C       -2.87630000      -1.54740000       1.25190000
C       -3.40540000      -2.40050000       2.31270000
O       -4.24310000      -1.92860000       1.24550000
C       -1.89520000      -1.88560000       0.15090000
N       -2.03400000      -0.94080000      -0.96030000
H       -0.31250000       1.30460000      -1.29750000
H        0.62890000      -0.68330000      -0.55210000
H        0.56640000       0.05710000       1.06130000
H       -1.89420000       0.13120000       2.30360000
H       -3.05370000       0.69630000       1.07310000
H       -3.20090000      -3.47070000       2.30380000
H       -3.61290000      -1.97560000       3.29410000
H       -1.40990000      -2.83700000      -0.03560000
H       -2.98220000      -0.57620000      -1.03610000
