13
Properties=species:S:1:pos:R:3 gdb_1904=T pbc="F F F"
C        0.05270000       1.53620000       0.01910000
C       -0.07510000       0.05190000       0.11650000
C       -1.34350000      -0.81750000      -0.00610000
C       -0.65460000      -1.79100000       0.99890000
O       -1.03100000      -2.73630000       1.62350000
C        0.59500000      -0.91880000       1.03090000
O        0.98630000      -0.77450000      -0.35500000
H        1.06510000       1.85020000       0.28480000
H       -0.15320000       1.87390000      -1.00240000
H       -0.65960000       2.03060000       0.68670000
H       -2.24680000      -0.39020000       0.44030000
H       -1.56030000      -1.19270000      -1.00810000
H        1.36400000      -0.79500000       1.78470000
