22
Properties=species:S:1:pos:R:3 gdb_90894=T pbc="F F F"
C       -0.17680000       1.55210000      -0.00390000
C        0.03070000       0.03790000       0.01460000
C        0.89560000      -0.50720000      -1.15080000
N        1.60450000      -1.70080000      -0.63740000
C        2.56470000      -1.45530000       0.45230000
C        2.28720000      -0.14580000       1.19720000
C        0.76660000      -0.54350000       1.24050000
C        0.05590000      -0.41900000       2.57270000
C        1.18880000      -1.95900000       0.73470000
H        0.77420000       2.09090000       0.06820000
H       -0.66370000       1.86670000      -0.93310000
H       -0.81210000       1.88180000       0.82470000
H       -0.95580000      -0.44600000      -0.03010000
H        0.28830000      -0.80390000      -2.01120000
H        1.62050000       0.23530000      -1.50370000
H        3.51000000      -1.98530000       0.40680000
H        2.72960000      -0.16370000       2.19710000
H        2.56340000       0.79520000       0.70970000
H       -0.05580000       0.62930000       2.87070000
H       -0.94720000      -0.85980000       2.52560000
H        0.60810000      -0.93030000       3.36830000
H        0.81080000      -2.92930000       1.03730000
