15
Properties=species:S:1:pos:R:3 gdb_35413=T pbc="F F F"
N       -0.22400000      -1.19180000      -0.22480000
C       -0.07940000      -0.06100000      -0.03520000
C        0.03520000       1.39310000       0.08230000
O       -0.17260000       1.92050000       1.41220000
C        1.07810000       2.64260000       1.37250000
C        2.31640000       1.92500000       1.96750000
N        2.14570000       0.49020000       1.67970000
C        2.65030000       1.36990000       0.61330000
C        1.43160000       2.07590000      -0.01920000
H       -0.68570000       1.83850000      -0.61530000
H        0.97270000       3.70580000       1.59380000
H        2.95630000       2.26360000       2.77260000
H        2.93780000      -0.01020000       2.07870000
H        3.60810000       1.19240000       0.14210000
H        1.62290000       2.70450000      -0.88540000
