25
Properties=species:S:1:pos:R:3 gdb_116448=T pbc="F F F"
C       -0.15140000       1.60110000       0.00430000
C        0.04860000       0.08180000       0.04890000
C        0.78540000      -0.49190000      -1.17260000
C        2.26130000      -0.05810000      -1.25140000
C        2.94610000      -0.68140000      -2.47020000
O        2.80990000      -2.09160000      -2.49700000
C        1.44800000      -2.48530000      -2.53620000
C        0.68050000      -2.03610000      -1.28260000
C        1.17080000      -2.80160000      -0.04400000
H        0.80180000       2.13860000       0.00250000
H       -0.70320000       1.90170000      -0.89370000
H       -0.71910000       1.94690000       0.87370000
H        0.58980000      -0.18360000       0.96570000
H       -0.93340000      -0.40410000       0.12470000
H        0.28510000      -0.09030000      -2.06870000
H        2.34410000       1.03260000      -1.31650000
H        2.79280000      -0.36410000      -0.34190000
H        2.52200000      -0.24840000      -3.39410000
H        4.02120000      -0.47760000      -2.46950000
H        0.96460000      -2.07050000      -3.43840000
H        1.44940000      -3.57640000      -2.62610000
H       -0.37790000      -2.28700000      -1.44110000
H        2.24130000      -2.65240000       0.12050000
H        0.63830000      -2.49900000       0.86160000
H        1.00890000      -3.87680000      -0.17630000
