17
Properties=species:S:1:pos:R:3 gdb_60906=T pbc="F F F"
O        0.22270000       1.56250000      -0.02590000
C        0.03570000       0.17590000       0.05180000
C        0.51350000      -0.48800000      -1.23130000
O        0.97660000       0.15380000      -2.14260000
C        0.74890000      -0.42260000       1.23810000
C        0.28960000      -1.66350000       1.98510000
C        0.44830000      -0.36980000       2.72050000
O        1.80950000      -0.13900000       3.07170000
C        2.17850000      -0.08890000       1.66500000
H        0.57390000       1.72910000      -0.91560000
H       -1.03870000      -0.07240000       0.14360000
H        0.41920000      -1.59110000      -1.27590000
H       -0.73600000      -1.96100000       1.78520000
H        0.97820000      -2.48130000       2.17870000
H       -0.32300000       0.13330000       3.29180000
H        2.97220000      -0.80270000       1.41540000
H        2.47180000       0.92630000       1.38270000
