19
Properties=species:S:1:pos:R:3 gdb_107331=T pbc="F F F"
C        0.25920000       1.50770000      -0.12810000
C       -0.09810000       0.02850000       0.07760000
C        0.52330000      -0.54820000       1.32220000
O        1.94910000      -0.76400000       1.29320000
C        1.06030000      -1.90410000       1.48050000
C        0.90690000      -2.29130000       2.91770000
C        0.37200000      -1.28100000       3.60510000
C        0.09420000      -0.06880000       2.72580000
O        0.81010000       1.08330000       3.14540000
H        1.33940000       1.62300000      -0.25780000
H       -0.23550000       1.90580000      -1.01870000
H       -0.03660000       2.11290000       0.73300000
H       -1.18710000      -0.09030000       0.14610000
H        0.23160000      -0.55840000      -0.78680000
H        1.08620000      -2.63440000       0.67740000
H        1.22820000      -3.24560000       3.31720000
H        0.21340000      -1.24600000       4.67680000
H       -0.96390000       0.21720000       2.74160000
H        1.73960000       0.88000000       2.97270000
