18
Properties=species:S:1:pos:R:3 gdb_106990=T pbc="F F F"
C        0.01140000       1.51160000       0.29990000
C        0.02500000       0.02550000      -0.08930000
C       -1.35630000      -0.53900000      -0.22650000
N       -2.21340000      -0.90220000       0.96580000
C       -1.92890000      -1.92260000      -0.05570000
C       -3.02750000      -1.69170000      -1.10950000
O       -4.35560000      -1.81920000      -0.70630000
C       -2.38540000      -0.26100000      -1.30480000
O       -2.53070000       0.61730000      -2.10400000
H        1.02970000       1.90520000       0.36320000
H       -0.53790000       2.09450000      -0.44430000
H       -0.47300000       1.66190000       1.26970000
H        0.54780000      -0.09770000      -1.04550000
H        0.58740000      -0.56010000       0.65000000
H       -1.56930000      -1.03960000       1.74490000
H       -1.39990000      -2.83760000       0.17820000
H       -2.89120000      -2.28270000      -2.02090000
H       -4.42050000      -1.35470000       0.13920000
