19
Properties=species:S:1:pos:R:3 gdb_122497=T pbc="F F F"
C        0.28420000       1.53570000      -0.01020000
C        0.22950000       0.02130000       0.08720000
O        0.63370000      -0.52400000      -1.15580000
C        0.61140000      -1.93030000      -1.18020000
C        1.03920000      -2.36320000      -2.55950000
O        2.41400000      -2.61710000      -2.79680000
C        1.51630000      -3.72830000      -2.89180000
C        1.66840000      -4.78470000      -1.84500000
O        1.27250000      -5.91330000      -1.98610000
H        1.29930000       1.86780000      -0.24460000
H       -0.38470000       1.89440000      -0.79760000
H       -0.02020000       1.98850000       0.93790000
H        0.89200000      -0.34080000       0.89100000
H       -0.79110000      -0.31760000       0.33330000
H        1.28530000      -2.35220000      -0.41880000
H       -0.40530000      -2.30990000      -0.97490000
H        0.53810000      -1.81810000      -3.36070000
H        1.32610000      -4.10980000      -3.89420000
H        2.19270000      -4.44740000      -0.92500000
