19
Properties=species:S:1:pos:R:3 gdb_31644=T pbc="F F F"
C        0.04530000       1.46780000       0.02060000
N       -0.00460000       0.02070000      -0.00890000
C        0.01330000      -0.76480000      -1.14730000
C        0.01870000      -2.05750000      -0.70340000
C        0.02450000      -3.31290000      -1.51250000
O        0.05090000      -2.95970000      -2.88830000
N        0.00980000      -2.09130000       0.67200000
C        0.00020000      -0.83220000       1.06270000
C       -0.00700000      -0.37580000       2.48380000
H        1.07660000       1.83960000       0.03600000
H       -0.45530000       1.86840000      -0.86370000
H       -0.47160000       1.84240000       0.90650000
H        0.01540000      -0.33980000      -2.13600000
H        0.89940000      -3.92360000      -1.23570000
H       -0.86740000      -3.91290000      -1.26790000
H        0.04520000      -3.77140000      -3.40220000
H        0.87410000       0.22770000       2.73250000
H       -0.89320000       0.22420000       2.72410000
H       -0.00970000      -1.25890000       3.12380000
