18
Properties=species:S:1:pos:R:3 gdb_80663=T pbc="F F F"
C       -0.05040000       1.44150000       0.04110000
N       -0.01360000      -0.00730000       0.04380000
C       -1.24630000      -0.79000000       0.06620000
C       -1.09280000      -1.90710000       1.13810000
C       -0.23930000      -2.60810000       0.05280000
C       -1.12900000      -1.91150000      -1.00580000
O        1.07830000      -2.03650000       0.02940000
C        1.18920000      -0.66990000       0.02480000
O        2.27780000      -0.15080000       0.00530000
H        0.97860000       1.79910000       0.02320000
H       -0.57930000       1.82330000      -0.84100000
H       -0.54960000       1.82730000       0.93870000
H       -2.10670000      -0.12160000       0.07950000
H       -0.60660000      -1.64900000       2.08050000
H       -2.02880000      -2.43980000       1.31660000
H       -0.09780000      -3.68820000       0.05260000
H       -2.07050000      -2.44480000      -1.15040000
H       -0.67490000      -1.65710000      -1.96510000
