18
Properties=species:S:1:pos:R:3 gdb_40477=T pbc="F F F"
C       -0.42460000       1.01650000      -0.52990000
N        0.59000000       1.53270000       0.40730000
C        0.41330000       0.07480000       0.25360000
C       -0.13030000      -0.62160000       1.44410000
N       -1.27320000      -0.09910000       2.26160000
C       -0.89000000      -1.37510000       2.94940000
C       -0.61600000      -2.09740000       1.59240000
N        0.76000000      -2.58160000       1.94070000
C        0.64430000      -1.26560000       2.65110000
H       -1.45050000       1.18740000      -0.21980000
H       -0.24140000       1.09590000      -1.59810000
H        1.41490000       1.83460000      -0.10450000
H        1.18140000      -0.48470000      -0.27540000
H       -0.96060000       0.71080000       2.80280000
H       -1.39740000      -1.75640000       3.83770000
H       -1.31320000      -2.64300000       0.95630000
H        0.70040000      -3.35100000       2.61300000
H        1.44100000      -0.83220000       3.25920000
