16
Properties=species:S:1:pos:R:3 gdb_44208=T pbc="F F F"
O        0.08810000       0.03100000      -0.03950000
C        0.05470000       1.22520000      -0.08510000
C       -1.06510000       2.28160000       0.02220000
N       -0.02630000       3.35420000       0.25020000
C        1.08850000       2.30860000       0.01110000
C        0.76650000       3.39150000      -0.95640000
C        0.34840000       3.36740000      -2.42970000
O        1.25770000       4.45020000      -2.71320000
C        1.66550000       4.56530000      -1.33250000
H       -1.72060000       2.45010000      -0.83630000
H       -1.66940000       2.13210000       0.92030000
H        2.02010000       2.28480000       0.56650000
H        0.59320000       2.46040000      -2.99410000
H       -0.69540000       3.64730000      -2.62260000
H        1.36990000       5.52050000      -0.88290000
H        2.74360000       4.41280000      -1.20620000
