23
Properties=species:S:1:pos:R:3 gdb_41336=T pbc="F F F"
C       -0.01380000       1.51920000       0.23020000
C        1.51860000       1.52160000      -0.08860000
C        1.30900000       0.18710000      -0.83560000
C        2.13020000      -1.09980000      -0.84900000
C        1.16970000      -2.03620000      -1.67370000
C        0.04410000      -1.08850000      -2.19630000
C       -0.95590000      -0.75770000      -1.05550000
C       -0.02700000      -0.01210000      -0.06730000
C        0.80930000       0.24460000      -2.29890000
H       -0.31340000       1.83190000       1.23320000
H       -0.59100000       2.09770000      -0.49650000
H        1.92500000       2.36450000      -0.65430000
H        2.11280000       1.39570000       0.82200000
H        3.09680000      -0.98230000      -1.35180000
H        2.32550000      -1.48180000       0.15790000
H        1.69920000      -2.49810000      -2.51190000
H        0.76330000      -2.84970000      -1.06450000
H       -0.43210000      -1.45280000      -3.10940000
H       -1.76980000      -0.12470000      -1.42780000
H       -1.41030000      -1.65290000      -0.61920000
H        0.11840000      -0.56940000       0.86330000
H        0.16260000       1.09880000      -2.51840000
H        1.62960000       0.23120000      -3.02430000
