18
Properties=species:S:1:pos:R:3 gdb_111449=T pbc="F F F"
O        0.10550000       1.36010000       0.13340000
C        0.02060000      -0.04990000      -0.02630000
C       -1.43150000      -0.54700000      -0.05980000
C       -1.55460000      -2.07470000      -0.15840000
N       -0.90770000      -2.82120000       0.93990000
C       -2.36440000      -2.58210000       0.98340000
C       -2.76830000      -1.38710000       1.82570000
O       -1.68300000      -0.67580000       2.42360000
C       -2.22640000      -0.17170000       1.19520000
H       -0.02830000       1.55180000       1.06660000
H        0.51130000      -0.28060000      -0.97810000
H        0.55520000      -0.58340000       0.76720000
H       -1.93950000      -0.09610000      -0.92140000
H       -1.59720000      -2.53410000      -1.14130000
H       -0.74150000      -3.77800000       0.63540000
H       -3.05000000      -3.41700000       0.89070000
H       -3.69110000      -1.41110000       2.39870000
H       -2.70120000       0.80420000       1.26640000
