17
Properties=species:S:1:pos:R:3 gdb_25926=T pbc="F F F"
C       -0.05070000       1.52790000      -0.02480000
C        0.08130000       0.01880000      -0.01920000
O        1.14760000      -0.54540000      -0.03660000
N       -1.12880000      -0.70580000       0.00760000
C       -2.41570000      -0.17940000       0.02760000
N       -3.32780000      -1.10320000       0.04950000
C       -2.62900000      -2.30090000       0.04420000
C       -1.28060000      -2.10450000       0.01870000
C       -0.16320000      -3.09030000       0.00470000
H        0.95400000       1.94810000      -0.04260000
H       -0.60490000       1.87270000      -0.90290000
H       -0.57810000       1.88250000       0.86570000
H       -2.59750000       0.88320000       0.02430000
H       -3.14680000      -3.24830000       0.05930000
H        0.46530000      -2.98700000      -0.88420000
H        0.49710000      -2.97590000       0.86880000
H       -0.58830000      -4.09740000       0.01880000
