15
Properties=species:S:1:pos:R:3 gdb_127292=T pbc="F F F"
C        0.00260000       1.44290000       0.01600000
N       -0.03240000      -0.00760000      -0.00370000
C       -0.00800000      -0.75710000      -1.17030000
C        0.03420000      -2.07220000      -0.75630000
N        0.05650000      -3.39290000      -1.09300000
N        0.07760000      -4.17010000       0.04180000
N        0.06130000      -3.41630000       1.08520000
C        0.03530000      -2.10450000       0.66360000
C       -0.00490000      -0.79380000       1.11720000
H        1.02160000       1.82040000      -0.12260000
H       -0.63180000       1.83910000      -0.78070000
H       -0.37930000       1.80050000       0.97370000
H       -0.02030000      -0.27950000      -2.13430000
H        0.07670000      -3.85080000      -1.98680000
H       -0.01540000      -0.36020000       2.10240000
