16
Properties=species:S:1:pos:R:3 gdb_115035=T pbc="F F F"
O       -0.21750000       1.46810000      -0.21290000
C        0.00740000       0.07340000      -0.05350000
C       -1.37190000      -0.55940000       0.13080000
N       -2.25640000      -0.23410000      -0.99670000
C       -2.28870000      -1.34880000      -1.80690000
N       -1.85040000      -2.45300000      -1.33100000
C       -1.39720000      -2.12580000       0.04190000
C       -0.11470000      -2.76230000       0.35850000
N        0.90010000      -3.24210000       0.63180000
H        0.62590000       1.89560000      -0.38730000
H        0.49880000      -0.35880000      -0.93780000
H        0.63440000      -0.14340000       0.82180000
H       -1.80350000      -0.20500000       1.07010000
H       -2.12860000       0.68160000      -1.40680000
H       -2.72280000      -1.27170000      -2.79950000
H       -2.13670000      -2.51890000       0.75180000
