15
Properties=species:S:1:pos:R:3 gdb_128563=T pbc="F F F"
C        0.01040000       1.43140000      -0.03630000
O       -0.00610000       0.01220000       0.01270000
C        0.57520000      -0.64380000      -1.00510000
C        0.68830000      -2.00360000      -1.18670000
C        1.38560000      -2.13370000      -2.41630000
N        1.68260000      -0.94600000      -2.95670000
N        1.17580000      -0.05200000      -2.07370000
C        1.75660000      -3.34500000      -3.05530000
C        2.05460000      -4.39210000      -3.56760000
H        1.03730000       1.81960000      -0.03410000
H       -0.52400000       1.80720000      -0.91870000
H       -0.50180000       1.77380000       0.86290000
H        0.32610000      -2.78070000      -0.53700000
H        1.27970000       0.92780000      -2.26950000
H        2.32250000      -5.31010000      -4.02860000
