17
Properties=species:S:1:pos:R:3 gdb_30279=T pbc="F F F"
C        0.00430000       1.60160000      -0.10510000
C       -0.02200000       0.07770000       0.06190000
C        0.78470000      -0.65870000      -1.07880000
O        1.65230000      -1.68040000      -0.48020000
C        1.55830000      -1.41520000       0.83020000
C        0.69550000      -0.47560000       1.26470000
C        0.82860000      -0.49950000       2.69430000
C        1.76840000      -1.44820000       2.96670000
O        2.23730000      -2.03600000       1.79270000
H        1.03200000       1.97790000      -0.07790000
H       -0.44870000       1.90350000      -1.05620000
H       -0.55540000       2.08950000       0.69870000
H       -1.07030000      -0.25100000       0.03720000
H        0.14530000      -1.16740000      -1.80200000
H        1.43660000       0.04480000      -1.60740000
H        0.31510000       0.09800000       3.43190000
H        2.21930000      -1.82070000       3.86940000
