20
Properties=species:S:1:pos:R:3 gdb_11040=T pbc="F F F"
C       -0.01970000       1.56340000       0.01680000
C        0.04560000       0.03540000       0.02650000
C        0.78600000      -0.56710000      -1.19670000
C        1.30040000      -1.94580000      -0.73200000
C        1.52810000      -1.78520000       0.76650000
O        1.52810000      -2.93660000       1.55820000
C        2.28620000      -0.56640000       1.23180000
C        0.76380000      -0.57660000       1.22470000
H        0.98550000       1.99810000       0.05280000
H       -0.51250000       1.93280000      -0.88940000
H       -0.57790000       1.94500000       0.87830000
H       -0.98180000      -0.35510000       0.03380000
H        0.14180000      -0.63300000      -2.07790000
H        1.62690000       0.07950000      -1.47330000
H        0.53470000      -2.71840000      -0.86930000
H        2.19430000      -2.26910000      -1.27870000
H        2.38270000      -3.36870000       1.45280000
H        2.74830000      -0.64790000       2.20960000
H        2.83600000       0.04500000       0.52290000
H        0.26740000      -0.58660000       2.18890000
