21
Properties=species:S:1:pos:R:3 gdb_113546=T pbc="F F F"
C       -0.37230000       1.44030000       0.14880000
C        0.32630000       0.09370000      -0.06800000
C        0.90910000      -0.48320000       1.20520000
C        0.01600000      -1.24520000       2.18170000
C        1.04110000      -1.96280000       1.37130000
O        0.69590000      -2.88980000       0.33610000
C        1.96220000      -3.57160000       0.49330000
C        2.28490000      -2.74500000       1.76430000
O        3.46030000      -1.97390000       1.78200000
H        0.32300000       2.18770000       0.54690000
H       -0.78020000       1.83060000      -0.78910000
H       -1.19800000       1.34550000       0.86190000
H       -0.37390000      -0.63020000      -0.49950000
H        1.13030000       0.21030000      -0.80610000
H        1.71210000       0.09680000       1.65450000
H        0.17550000      -1.13380000       3.24980000
H       -1.01930000      -1.39590000       1.89030000
H        1.82970000      -4.65260000       0.60830000
H        2.65240000      -3.35900000      -0.33240000
H        2.16520000      -3.31880000       2.69230000
H        4.16380000      -2.49550000       2.17970000
