20
Properties=species:S:1:pos:R:3 gdb_70425=T pbc="F F F"
C        0.04500000       1.54960000       0.21880000
C       -0.01560000       0.06390000       0.02160000
C       -0.90890000      -0.82840000       0.79430000
N        0.54480000      -0.93120000       1.03110000
C        1.06090000      -1.74030000      -0.12710000
C        0.56100000      -0.71160000      -1.16630000
C       -0.25660000      -1.05050000      -2.42780000
O        0.71350000      -0.42050000      -3.28780000
C        1.54450000      -0.06780000      -2.16450000
H        1.05260000       1.94000000       0.04190000
H       -0.64090000       2.06440000      -0.46450000
H       -0.23910000       1.80900000       1.24250000
H       -1.44720000      -0.39310000       1.63090000
H       -1.42370000      -1.65700000       0.31000000
H        2.15080000      -1.81010000      -0.08070000
H        0.63920000      -2.75080000      -0.18320000
H       -0.36630000      -2.12110000      -2.64650000
H       -1.24250000      -0.57070000      -2.49130000
H        1.67800000       1.01810000      -2.07930000
H        2.53320000      -0.54350000      -2.21580000
