13
Properties=species:S:1:pos:R:3 gdb_131277=T pbc="F F F"
O        0.08250000       1.30210000       0.18100000
C        0.07090000      -0.02840000       0.01240000
N        0.09280000      -0.67720000      -1.11370000
C        0.06700000      -2.01640000      -0.71320000
C        0.03020000      -2.10370000       0.66540000
N        0.00210000      -3.40460000       1.01780000
N        0.02280000      -4.19440000      -0.10330000
C        0.06060000      -3.36190000      -1.14470000
N        0.03140000      -0.81510000       1.15590000
H        0.11090000       1.68590000      -0.70500000
H       -0.01930000      -3.84340000       1.92010000
H        0.08120000      -3.77080000      -2.14340000
H        0.01120000      -0.47600000       2.10120000
