14
Properties=species:S:1:pos:R:3 gdb_42159=T pbc="F F F"
O        0.11120000      -0.09010000      -0.25030000
C        0.10180000       1.08270000       0.05450000
C        1.28980000       1.90100000       0.10730000
C        2.29360000       2.56380000       0.14740000
C       -1.21780000       1.79730000       0.41860000
O       -1.22080000       2.97830000       0.69140000
C       -2.44100000       0.95670000       0.40990000
C       -3.31900000       1.07020000       1.62710000
N       -3.73330000       1.66030000       0.36710000
H        3.17930000       3.15130000       0.18250000
H       -2.38140000       0.01230000      -0.11540000
H       -3.87020000       0.18860000       1.94010000
H       -2.97500000       1.72320000       2.42460000
H       -3.53250000       2.66100000       0.39230000
