21
Properties=species:S:1:pos:R:3 gdb_41537=T pbc="F F F"
C        0.08900000       1.46690000       0.27420000
O        1.40530000       1.50920000      -0.33420000
C        1.26330000       0.15370000      -0.84500000
C        2.37630000      -0.80520000      -0.45980000
C        2.10370000      -2.23380000      -0.99410000
C        0.62420000      -2.64260000      -1.16880000
C       -0.30390000      -2.49060000       0.04950000
C       -0.64430000      -1.06890000       0.42650000
C       -0.00570000      -0.00670000      -0.03780000
H        0.10540000       1.75480000       1.33290000
H       -0.62200000       2.11530000      -0.25850000
H        1.12600000       0.18270000      -1.93680000
H        3.33850000      -0.43930000      -0.83620000
H        2.44380000      -0.81000000       0.63320000
H        2.58390000      -2.34790000      -1.97320000
H        2.60050000      -2.95340000      -0.33250000
H        0.18530000      -2.08300000      -2.00370000
H        0.61150000      -3.69400000      -1.47880000
H       -1.23690000      -3.03460000      -0.15130000
H        0.13610000      -2.99710000       0.92280000
H       -1.44960000      -0.93740000       1.14780000
