25
Properties=species:S:1:pos:R:3 gdb_59648=T pbc="F F F"
C        0.07020000       1.59840000      -0.06380000
C        0.00750000       0.07030000      -0.02910000
O        0.69380000      -0.48890000      -1.14910000
C        0.65310000      -0.52910000       1.21810000
C       -0.03610000      -0.12010000       2.55040000
C        0.02010000      -1.37230000       3.46840000
C        0.90620000      -2.40070000       2.73050000
C        0.64130000      -3.85360000       3.11890000
C        0.65650000      -2.06750000       1.25130000
H        1.11140000       1.93640000      -0.03900000
H       -0.39100000       1.98500000      -0.98070000
H       -0.46180000       2.04220000       0.78310000
H       -1.05210000      -0.24340000      -0.04730000
H        0.32930000      -0.09410000      -1.94740000
H        1.69700000      -0.18790000       1.23590000
H        0.45690000       0.74420000       3.00420000
H       -1.07600000       0.17640000       2.37170000
H        0.39450000      -1.14430000       4.47090000
H       -0.98540000      -1.79060000       3.59840000
H        1.95830000      -2.16840000       2.95110000
H       -0.39760000      -4.13170000       2.90420000
H        1.29070000      -4.54070000       2.56570000
H        0.81540000      -4.02090000       4.18760000
H       -0.32970000      -2.45010000       0.94900000
H        1.39350000      -2.50260000       0.57270000
