10
Properties=species:S:1:pos:R:3 gdb_758=T pbc="F F F"
N        0.09000000       1.41430000       0.16210000
C       -0.02410000       0.03310000       0.03450000
C       -1.09770000      -0.83100000      -0.02310000
N       -0.62690000      -2.11050000      -0.05670000
N        0.66810000      -2.10220000      -0.03040000
N        1.04770000      -0.79520000       0.03330000
H        0.75100000       1.83290000      -0.48140000
H       -0.80430000       1.87730000       0.07190000
H       -2.15190000      -0.60760000      -0.04370000
H        2.02490000      -0.56350000       0.10800000
