15
Properties=species:S:1:pos:R:3 gdb_64626=T pbc="F F F"
O        0.04190000       1.38570000      -0.05190000
C        0.05090000      -0.02920000      -0.03610000
C        0.69980000      -0.58380000       1.23710000
C       -0.15700000      -1.29040000       1.97320000
C       -1.49650000      -1.35730000       1.31310000
N       -2.11320000      -0.00140000       1.15490000
C       -1.37730000      -0.62160000       0.03840000
C        0.75240000      -0.48470000      -1.24730000
N        1.29080000      -0.89180000      -2.18450000
H       -0.63100000       1.62550000       0.60410000
H        1.71570000      -0.31320000       1.49500000
H        0.05080000      -1.72390000       2.94370000
H       -2.15100000      -2.21270000       1.43300000
H       -3.11310000      -0.09460000       0.98520000
H       -1.89390000      -0.89740000      -0.87230000
