25
Properties=species:S:1:pos:R:3 gdb_121355=T pbc="F F F"
C       -0.07430000       1.51940000       0.23620000
C       -0.03710000       0.00110000       0.04720000
C        0.75120000      -0.42820000      -1.19620000
C        0.77520000      -1.93730000      -1.39430000
O       -0.55080000      -2.39560000      -1.65160000
C       -0.45740000      -3.73950000      -2.10890000
C        0.96100000      -3.90910000      -2.71710000
C        1.59920000      -2.50530000      -2.57150000
C        1.47990000      -1.68300000      -3.86000000
H        0.93520000       1.93320000       0.34270000
H       -0.54350000       2.01410000      -0.62170000
H       -0.64240000       1.79630000       1.12990000
H        0.40610000      -0.46890000       0.93550000
H       -1.05610000      -0.39240000      -0.03100000
H        0.31660000       0.04340000      -2.08500000
H        1.78720000      -0.07100000      -1.11990000
H        1.14690000      -2.40650000      -0.46300000
H       -0.61200000      -4.43820000      -1.27310000
H       -1.26120000      -3.90090000      -2.83370000
H        1.53060000      -4.65860000      -2.16090000
H        0.92730000      -4.23420000      -3.76020000
H        2.65470000      -2.58520000      -2.29100000
H        0.43060000      -1.54240000      -4.13940000
H        1.93670000      -0.69400000      -3.75760000
H        1.98170000      -2.19510000      -4.68740000
