22
Properties=species:S:1:pos:R:3 gdb_107724=T pbc="F F F"
C       -0.27610000       1.48220000      -0.14790000
C        0.13770000       0.01330000       0.00140000
C        0.92080000      -0.51430000      -1.16780000
C        2.13580000       0.10390000      -1.84370000
C        1.72430000      -0.76350000      -3.05370000
C        1.95370000      -0.32000000      -4.46860000
C        1.95610000      -2.22240000      -2.59810000
C        0.82770000      -1.93580000      -1.62880000
N        0.25910000      -0.83310000      -2.48540000
H        0.59580000       2.14280000      -0.19420000
H       -0.85670000       1.62510000      -1.06400000
H       -0.88860000       1.80290000       0.70000000
H        0.73080000      -0.11910000       0.91660000
H       -0.75820000      -0.60770000       0.12240000
H        1.97600000       1.16650000      -2.04820000
H        3.13120000      -0.04240000      -1.40880000
H        3.02470000      -0.32410000      -4.70370000
H        1.44720000      -0.98550000      -5.17510000
H        1.57470000       0.69480000      -4.62710000
H        1.64250000      -2.93320000      -3.36830000
H        2.94460000      -2.50010000      -2.21580000
H        0.17400000      -2.64900000      -1.13780000
