18
Properties=species:S:1:pos:R:3 gdb_64827=T pbc="F F F"
C       -0.01540000       1.65890000      -0.64290000
C       -0.03160000       0.23150000      -0.15580000
C        1.16120000      -0.66280000      -0.30950000
C        0.71980000      -0.20250000       1.06660000
O       -1.26100000      -0.45110000      -0.41200000
C       -2.33600000      -0.14080000       0.33250000
N       -2.37140000       0.72470000       1.25660000
C       -3.51850000      -0.98750000      -0.09320000
O       -4.59470000      -0.88860000       0.43520000
H        0.98130000       2.08670000      -0.50350000
H       -0.25810000       1.70310000      -1.70980000
H       -0.73300000       2.26700000      -0.08820000
H        0.97020000      -1.69650000      -0.57340000
H        2.06030000      -0.23960000      -0.74350000
H        1.30830000       0.54380000       1.58810000
H        0.24580000      -0.93250000       1.71130000
H       -3.31950000       0.73300000       1.64110000
H       -3.31580000      -1.69700000      -0.91970000
