23
Properties=species:S:1:pos:R:3 gdb_63915=T pbc="F F F"
C       -0.19940000       1.59300000       0.02770000
C       -0.01060000       0.06770000      -0.01880000
C       -1.38530000      -0.61320000       0.10410000
C        0.72670000      -0.41970000      -1.31460000
C        2.10990000      -0.89640000      -0.84940000
C        2.93520000       0.27910000      -0.23640000
C        2.39300000      -0.11200000       1.13800000
C        1.90200000      -1.44830000       0.59490000
C        0.90840000      -0.44780000       1.09940000
H        0.75060000       2.12540000      -0.06600000
H       -0.85700000       1.93210000      -0.78100000
H       -0.65730000       1.89890000       0.97540000
H       -2.02460000      -0.36010000      -0.74920000
H       -1.28250000      -1.70310000       0.13560000
H       -1.90620000      -0.29680000       1.01510000
H        0.17420000      -1.24980000      -1.76970000
H        0.80040000       0.37110000      -2.06920000
H        2.63690000      -1.52050000      -1.57130000
H        4.00910000       0.08030000      -0.29600000
H        2.74490000       1.28770000      -0.62030000
H        2.87760000       0.08940000       2.08700000
H        2.04980000      -2.45650000       0.95840000
H        0.46680000      -0.61220000       2.07830000
