13
Properties=species:S:1:pos:R:3 gdb_18955=T pbc="F F F"
O        0.05030000       0.01540000      -0.42000000
C        0.01860000       1.18540000      -0.11160000
N        1.05560000       1.86930000       0.47060000
C        2.49700000       1.61750000       0.21900000
C        2.60070000       2.72310000      -0.89470000
O        3.70650000       3.41560000      -0.25940000
C        2.89230000       2.98500000       0.86390000
C        1.53220000       3.23710000       0.13730000
H       -0.89240000       1.81330000      -0.19260000
H        2.96660000       0.64040000       0.28820000
H        2.56910000       2.64700000      -1.98120000
H        3.20470000       3.22420000       1.87870000
H        0.89940000       4.12270000       0.11950000
