15
Properties=species:S:1:pos:R:3 gdb_21306=T pbc="F F F"
C       -0.14490000       1.40760000       0.30530000
O       -0.20360000       0.01310000       0.50610000
C       -1.02440000      -0.63550000      -0.43090000
C       -1.01660000      -2.09570000      -0.12270000
C       -0.40890000      -2.83620000       0.84070000
C       -0.83450000      -4.15900000       0.54380000
N       -1.62380000      -4.21140000      -0.49960000
O       -1.74200000      -2.88630000      -0.92950000
H        0.51160000       1.81700000       1.07590000
H        0.26550000       1.65870000      -0.68500000
H       -1.13810000       1.87360000       0.39640000
H       -2.05890000      -0.25150000      -0.39270000
H       -0.66650000      -0.47000000      -1.46210000
H        0.23480000      -2.48760000       1.62860000
H       -0.59050000      -5.07810000       1.05810000
