21
Properties=species:S:1:pos:R:3 gdb_112188=T pbc="F F F"
C       -0.09570000       1.63880000       0.06660000
C       -0.12110000       0.13650000       0.36440000
C       -1.42630000      -0.53680000      -0.05140000
C       -1.67020000      -0.69800000      -1.59360000
C       -1.77780000      -2.22040000      -1.37770000
O       -2.00290000      -3.15790000      -2.09260000
C       -1.50440000      -2.07450000       0.08910000
C       -0.65110000      -3.02530000       0.90460000
C       -2.11780000      -2.93180000       1.17330000
H        0.85290000       2.08810000       0.37580000
H       -0.22370000       1.83590000      -1.00320000
H       -0.90060000       2.16030000       0.59640000
H        0.71670000      -0.35890000      -0.14380000
H        0.03910000      -0.02250000       1.43900000
H       -2.27030000      -0.03870000       0.43850000
H       -2.57170000      -0.23220000      -2.00020000
H       -0.82010000      -0.41420000      -2.22300000
H       -0.27440000      -3.90130000       0.38720000
H        0.03430000      -2.58280000       1.61950000
H       -2.44530000      -2.42270000       2.07400000
H       -2.75720000      -3.74410000       0.84360000
