17
Properties=species:S:1:pos:R:3 gdb_25029=T pbc="F F F"
O        0.00100000      -0.04280000      -0.13750000
C       -0.03110000       1.16930000      -0.05540000
N       -1.11160000       1.99560000       0.21270000
C       -0.73220000       3.33930000       0.21890000
C        0.59260000       3.39550000      -0.04540000
N        1.01660000       2.07330000      -0.21220000
C        1.48280000       4.55900000      -0.15390000
C        2.92210000       4.50750000       0.32140000
C        2.62510000       4.59760000      -1.15070000
H       -2.03160000       1.62820000       0.37480000
H       -1.43150000       4.13470000       0.40890000
H        1.94730000       1.75880000      -0.42070000
H        0.96180000       5.49660000       0.00860000
H        3.31930000       5.38150000       0.82490000
H        3.28870000       3.56610000       0.71670000
H        2.78820000       3.71790000      -1.76430000
H        2.81750000       5.53370000      -1.66240000
