19
Properties=species:S:1:pos:R:3 gdb_11404=T pbc="F F F"
C       -0.14100000       1.52660000      -0.08070000
C       -0.10130000      -0.00180000      -0.14100000
C        0.83640000      -0.54740000      -1.21200000
C        0.83280000      -2.09410000      -1.35620000
N        0.33720000      -2.35700000      -2.71320000
C        0.13660000      -1.22260000      -3.24890000
C       -0.36840000      -0.97230000      -4.62910000
O        0.39960000      -0.09850000      -2.52380000
H        0.84820000       1.93890000       0.14750000
H       -0.46330000       1.94260000      -1.03910000
H       -0.83330000       1.87250000       0.69260000
H        0.22340000      -0.41110000       0.82460000
H       -1.10640000      -0.40190000      -0.32650000
H        1.84630000      -0.14740000      -1.06450000
H        1.82970000      -2.53040000      -1.23060000
H        0.17670000      -2.56930000      -0.61690000
H       -0.54260000      -1.92180000      -5.13390000
H       -1.29910000      -0.39740000      -4.59400000
H        0.35710000      -0.38080000      -5.19640000
