17
Properties=species:S:1:pos:R:3 gdb_53134=T pbc="F F F"
C        0.11550000       1.59940000      -0.08980000
C        0.00420000       0.14990000      -0.02200000
C       -0.12920000      -1.04390000       0.06560000
C       -0.15820000      -2.48170000       0.07130000
C       -0.43740000      -3.42710000       1.22760000
C       -1.65230000      -3.00390000       2.11030000
O       -2.19860000      -1.77590000       1.62230000
C       -2.53260000      -2.99080000       0.94630000
C       -1.35700000      -3.41340000       0.01160000
H        1.08470000       1.94490000       0.28790000
H        0.01760000       1.96090000      -1.12000000
H       -0.66470000       2.08570000       0.50690000
H        0.64220000      -2.90220000      -0.53870000
H        0.27280000      -4.18810000       1.52450000
H       -1.82120000      -3.25840000       3.14920000
H       -3.58100000      -3.23220000       0.82220000
H       -1.45740000      -4.16230000      -0.76340000
