14
Properties=species:S:1:pos:R:3 gdb_652=T pbc="F F F"
C       -0.16150000       1.61260000      -0.00140000
C        0.02360000       0.10470000       0.03240000
C        1.18360000      -0.63870000      -0.69420000
C        2.19900000      -0.13710000       0.36040000
C        0.91780000      -0.63170000       1.07370000
O        0.91800000      -1.80990000       0.17440000
H        0.77060000       2.16630000       0.13600000
H       -0.59370000       1.92190000      -0.95920000
H       -0.85490000       1.92900000       0.78530000
H       -0.92360000      -0.42350000      -0.10790000
H        1.32710000      -0.82790000      -1.75900000
H        3.06940000      -0.78020000       0.49380000
H        2.45200000       0.92400000       0.39430000
H        0.74160000      -0.81250000       2.13500000
