17
Properties=species:S:1:pos:R:3 gdb_50499=T pbc="F F F"
O        0.33520000      -0.10630000      -0.17320000
C        0.28550000       1.09340000      -0.10930000
C        1.45810000       2.00440000       0.16920000
C        1.64890000       3.05760000      -0.96630000
O        1.46540000       4.34330000      -0.38510000
C        1.80090000       4.24880000       0.99460000
C        1.21130000       2.88570000       1.41770000
C        3.24880000       4.32870000       1.22360000
C        4.43630000       4.38090000       1.40140000
H       -0.67560000       1.64200000      -0.26350000
H        2.35060000       1.38780000       0.28570000
H        2.65280000       2.96070000      -1.39710000
H        0.91590000       2.96120000      -1.77430000
H        1.30480000       5.08590000       1.49530000
H        0.13790000       3.01420000       1.59350000
H        1.66570000       2.47560000       2.31990000
H        5.48510000       4.44020000       1.56040000
