20
Properties=species:S:1:pos:R:3 gdb_37623=T pbc="F F F"
C       -0.04790000       1.56040000       0.03670000
C        1.45010000       1.89110000       0.04150000
C        2.04150000       0.93090000       1.09610000
C        1.29740000      -0.30110000       0.76320000
C        0.00950000       0.01150000      -0.01860000
C        0.18240000      -0.44490000      -1.48150000
C        1.33760000       0.37240000      -2.11820000
C        2.18630000       0.99290000      -1.01040000
N        2.58520000      -0.00040000       0.05250000
H       -0.52100000       1.91500000       0.95920000
H       -0.59090000       1.99170000      -0.81200000
H        1.71500000       2.94760000       0.06890000
H        2.56170000       1.15280000       2.02060000
H        1.36090000      -1.18780000       1.38410000
H       -0.85840000      -0.46730000       0.44130000
H        0.41370000      -1.51490000      -1.50210000
H       -0.74940000      -0.30900000      -2.04000000
H        1.96570000      -0.26260000      -2.75110000
H        0.94960000       1.17040000      -2.76200000
H        3.09250000       1.46190000      -1.40020000
