14
Properties=species:S:1:pos:R:3 gdb_26059=T pbc="F F F"
O        0.42360000       1.46260000      -0.19430000
C        0.06130000       0.12410000      -0.00570000
C        0.40870000      -0.70880000      -1.18420000
N        0.64720000      -1.40410000      -2.07540000
C        0.73630000      -0.42440000       1.23100000
N        1.38840000       0.35070000       2.06280000
C        1.85490000      -0.48140000       3.05700000
C        1.47330000      -1.77150000       2.80850000
N        0.75170000      -1.72130000       1.63300000
H        1.02660000       1.67480000       0.53890000
H       -1.03320000       0.05320000       0.10770000
H        2.43260000      -0.10190000       3.88480000
H        1.63910000      -2.69620000       3.33510000
H        0.37070000      -2.50680000       1.13040000
