18
Properties=species:S:1:pos:R:3 gdb_126806=T pbc="F F F"
C       -0.13270000       1.50280000       0.18480000
C        0.07940000      -0.00630000       0.06060000
N        0.76770000      -0.57070000       1.20900000
N        2.06150000      -0.85070000       1.19590000
C        2.32190000      -1.26250000       2.43720000
C        1.12370000      -1.20120000       3.17090000
O        0.96610000      -1.53980000       4.45710000
C       -0.35260000      -1.39480000       4.97830000
N        0.14750000      -0.75680000       2.38240000
H        0.82620000       2.02300000       0.26000000
H       -0.66290000       1.87870000      -0.69540000
H       -0.72640000       1.73500000       1.07250000
H       -0.87810000      -0.52580000      -0.03550000
H        0.69700000      -0.25020000      -0.80560000
H        3.30520000      -1.57920000       2.74130000
H       -1.06190000      -2.02490000       4.43110000
H       -0.29880000      -1.70800000       6.02160000
H       -0.68780000      -0.35430000       4.91340000
