20
Properties=species:S:1:pos:R:3 gdb_15725=T pbc="F F F"
C        0.52610000       1.24810000       0.26550000
O        0.54760000      -0.16050000       0.14170000
C        0.44150000      -0.61120000      -1.18600000
O        1.54250000      -0.21480000      -1.97290000
C        2.55800000      -1.23260000      -1.93880000
C        1.98750000      -2.39480000      -1.11150000
C        0.46940000      -2.14480000      -1.18410000
C       -0.36540000      -2.82220000      -0.10180000
H        1.36550000       1.71120000      -0.26620000
H       -0.41190000       1.66950000      -0.12830000
H        0.59760000       1.47880000       1.33090000
H       -0.45170000      -0.17160000      -1.65510000
H        2.76880000      -1.52960000      -2.97360000
H        3.47780000      -0.81810000      -1.51170000
H        2.27980000      -3.37120000      -1.50510000
H        2.31990000      -2.33200000      -0.07110000
H        0.11090000      -2.45810000      -2.17290000
H       -0.04580000      -2.50160000       0.89220000
H       -1.42710000      -2.57640000      -0.20860000
H       -0.26850000      -3.91090000      -0.16450000
