20
Properties=species:S:1:pos:R:3 gdb_113664=T pbc="F F F"
C       -0.22080000       1.37120000       0.61710000
C       -0.12270000      -0.11370000       0.24760000
C       -1.46100000      -0.72520000      -0.10950000
C       -1.69430000      -2.21020000      -0.00950000
N       -2.33780000      -1.28520000       0.89850000
C       -2.26630000      -1.22310000       2.26520000
O       -2.05940000      -0.19780000       2.89200000
C       -2.57990000      -2.51920000       3.01290000
O       -2.60540000      -2.28930000       4.39020000
H        0.76990000       1.78180000       0.83310000
H       -0.64840000       1.95240000      -0.20740000
H       -0.85370000       1.50200000       1.49720000
H        0.54120000      -0.24210000      -0.61710000
H        0.32470000      -0.67920000       1.07320000
H       -2.00110000      -0.20230000      -0.89880000
H       -2.34070000      -2.71580000      -0.72210000
H       -0.87810000      -2.81520000       0.38070000
H       -3.54280000      -2.90970000       2.64980000
H       -1.81720000      -3.27090000       2.75060000
H       -2.40710000      -1.34270000       4.48430000
