20
Properties=species:S:1:pos:R:3 gdb_107219=T pbc="F F F"
O        0.12260000       1.29130000      -0.44060000
C        0.04880000       0.04240000       0.23130000
C       -1.35450000      -0.51190000       0.21230000
C       -2.43570000       0.12740000       1.09350000
C       -3.42300000      -0.98450000       1.46790000
C       -4.26480000      -1.64270000       0.40680000
C       -2.95420000      -2.27230000       0.81350000
C       -1.69600000      -1.95480000       0.02660000
N       -1.75080000      -1.02740000      -1.11520000
H       -0.18990000       1.12390000      -1.33770000
H        0.73140000      -0.69340000      -0.21940000
H        0.38090000       0.22800000       1.25840000
H       -1.96670000       0.51840000       2.00280000
H       -2.91490000       0.98170000       0.60140000
H       -3.81330000      -0.98390000       2.47970000
H       -5.16870000      -2.14360000       0.73810000
H       -4.37480000      -1.17980000      -0.56940000
H       -2.97780000      -3.22210000       1.33460000
H       -0.94490000      -2.73460000      -0.05870000
H       -2.70790000      -0.78160000      -1.34860000
