16
Properties=species:S:1:pos:R:3 gdb_51126=T pbc="F F F"
O        0.26710000       1.51340000      -1.40560000
C        0.11890000       1.52290000      -0.20380000
N        1.11460000       1.29260000       0.70180000
C        2.43430000       0.96550000       0.30880000
C        3.64780000       1.47980000       1.03030000
C        3.46220000       1.81850000      -0.42770000
C        3.77730000       0.59140000      -1.33820000
O        4.19720000      -0.51940000      -0.52300000
C        2.79850000      -0.23100000      -0.64730000
H       -0.85100000       1.72590000       0.29220000
H        0.86650000       1.23630000       1.67830000
H        3.44640000       2.30660000       1.70450000
H        4.42540000       0.79500000       1.34370000
H        3.34790000       2.82920000      -0.79240000
H        4.09920000       0.61090000      -2.37100000
H        2.13250000      -1.01480000      -0.98560000
