22
Properties=species:S:1:pos:R:3 gdb_78308=T pbc="F F F"
C       -0.08030000       1.41740000      -0.00320000
N        0.01290000      -0.03620000       0.02010000
C        1.37350000      -0.55960000      -0.20190000
C        0.77770000      -0.57780000       1.15790000
C        0.64610000      -2.09940000       1.41110000
C        0.06800000      -2.55660000       2.73100000
C        2.06460000      -2.55140000       0.89110000
C        1.48020000      -2.07100000      -0.48230000
C        0.12310000      -2.61890000       0.03730000
H        0.81360000       1.92860000       0.39500000
H       -0.23220000       1.75220000      -1.03440000
H       -0.94470000       1.73300000       0.58980000
H        2.16160000       0.12760000      -0.49310000
H        1.08810000       0.09230000       1.95440000
H       -0.97020000      -2.22350000       2.84100000
H        0.07960000      -3.64830000       2.81520000
H        0.63670000      -2.15180000       3.57670000
H        2.94220000      -2.02730000       1.28400000
H        2.21200000      -3.63390000       0.94360000
H        1.90410000      -2.38700000      -1.43540000
H        0.09810000      -3.71080000       0.01400000
H       -0.79530000      -2.19230000      -0.36080000
