25
Properties=species:S:1:pos:R:3 gdb_104171=T pbc="F F F"
C        0.07480000       1.27010000       0.38620000
C        0.02670000      -0.18170000      -0.10290000
C        0.73540000      -0.46900000      -1.44710000
C        0.07450000       0.30870000      -2.59780000
C        2.26410000      -0.14630000      -1.36490000
C        2.98080000      -1.35410000      -1.99130000
C        2.10920000      -2.53950000      -1.55630000
O        2.26650000      -2.82720000      -0.16540000
C        0.68730000      -2.00580000      -1.74830000
H        1.10400000       1.63220000       0.48120000
H       -0.45500000       1.95030000      -0.28810000
H       -0.39480000       1.35820000       1.37120000
H        0.47950000      -0.83450000       0.65270000
H       -1.02300000      -0.49400000      -0.18870000
H        0.10690000       1.39030000      -2.43330000
H        0.58150000       0.10720000      -3.54850000
H       -0.97620000       0.01910000      -2.71690000
H        2.51820000       0.79550000      -1.85940000
H        2.56850000      -0.05530000      -0.31820000
H        2.97840000      -1.28960000      -3.08660000
H        4.02620000      -1.45450000      -1.67710000
H        2.29750000      -3.44490000      -2.15140000
H        3.19620000      -3.02020000      -0.00670000
H       -0.01370000      -2.53850000      -1.10040000
H        0.37550000      -2.18270000      -2.78310000
