15
Properties=species:S:1:pos:R:3 gdb_25606=T pbc="F F F"
O       -0.21720000       0.18570000       0.54950000
C        0.03970000       1.09500000      -0.19200000
C        1.34460000       1.86850000      -0.13910000
O        1.30140000       2.85810000      -1.14540000
C        2.40040000       3.64440000      -1.23700000
C        3.55250000       3.63280000      -0.50430000
O        4.38550000       4.61760000      -0.95890000
C        3.74950000       5.24320000      -1.97710000
C        2.52750000       4.69670000      -2.20090000
H       -0.65880000       1.44740000      -0.98200000
H        1.46320000       2.31730000       0.85910000
H        2.18630000       1.17600000      -0.29450000
H        3.91950000       3.03970000       0.31380000
H        4.28920000       6.05210000      -2.44120000
H        1.79940000       4.98390000      -2.94170000
