17
Properties=species:S:1:pos:R:3 gdb_36494=T pbc="F F F"
N        0.02540000      -1.12770000      -0.15800000
C        0.00150000       0.02590000      -0.09160000
C        0.01840000       1.48280000       0.00590000
C        1.46010000       2.03420000       0.05160000
N        2.17090000       1.70390000      -1.18580000
C        3.12260000       2.76770000      -1.52130000
C        2.51310000       3.99630000      -0.88050000
O        1.11370000       4.16210000      -1.14250000
C        1.51080000       3.55140000       0.08950000
H       -0.48280000       1.91140000      -0.86690000
H       -0.53600000       1.78130000       0.90320000
H        1.95320000       1.66060000       0.96570000
H        2.58010000       0.78000000      -1.17380000
H        4.13080000       2.62820000      -1.09490000
H        3.22840000       2.86100000      -2.60850000
H        3.08790000       4.91150000      -0.77440000
H        1.25560000       4.08900000       0.99850000
