9
Properties=species:S:1:pos:R:3 gdb_147=T pbc="F F F"
O       -0.29760000       0.29110000      -0.65410000
C        0.22360000       0.85930000       0.26970000
C        1.44010000       1.71600000       0.14510000
C        1.50360000       2.96970000       0.92810000
O        2.22490000       1.82270000       1.33730000
H       -0.16340000       0.79550000       1.31170000
H        1.99030000       1.63910000      -0.79050000
H        2.09530000       3.79300000       0.53220000
H        0.66580000       3.25170000       1.56460000
