17
Properties=species:S:1:pos:R:3 gdb_27554=T pbc="F F F"
O        0.28380000       1.34830000       0.09870000
C        0.12970000       0.00330000      -0.00730000
C        0.27450000      -0.87930000      -1.05070000
C       -0.01900000      -2.17850000      -0.51870000
C       -0.32270000      -2.03550000       0.81380000
N       -0.23440000      -0.67890000       1.11070000
N       -0.06640000      -3.36110000      -1.28380000
C        1.18980000      -3.93590000      -1.76380000
C        0.40830000      -4.59830000      -0.68170000
H        0.50700000       1.69420000      -0.77030000
H        0.54640000      -0.64440000      -2.06770000
H       -0.62930000      -2.75230000       1.55550000
H       -0.39350000      -0.25250000       2.00580000
H        1.16920000      -4.32570000      -2.77750000
H        2.11360000      -3.43980000      -1.47470000
H        0.81990000      -4.54340000       0.32420000
H       -0.18550000      -5.48350000      -0.89080000
