20
Properties=species:S:1:pos:R:3 gdb_102355=T pbc="F F F"
C        0.06450000       1.62190000       0.23810000
C        0.01520000       0.10880000       0.01490000
C        0.73820000      -0.38490000      -1.26750000
C        0.69470000      -1.94610000      -1.32800000
C        1.38520000      -2.57430000      -2.54120000
C        0.01000000       0.14960000      -2.52280000
O       -1.18760000       0.14980000      -2.61140000
C        2.13070000       0.07460000      -1.29240000
N        3.22610000       0.44260000      -1.33040000
H        1.09420000       1.98310000       0.31700000
H       -0.42670000       2.16280000      -0.57660000
H       -0.45410000       1.88150000       1.16520000
H        0.45680000      -0.41250000       0.87060000
H       -1.02300000      -0.22380000      -0.07290000
H        1.14730000      -2.32200000      -0.40450000
H       -0.36430000      -2.22300000      -1.30730000
H        0.90670000      -2.28020000      -3.48110000
H        2.44010000      -2.28920000      -2.59330000
H        1.33490000      -3.66470000      -2.47650000
H        0.65910000       0.50750000      -3.34840000
