18
Properties=species:S:1:pos:R:3 gdb_39208=T pbc="F F F"
C       -0.02160000       1.48660000       0.32250000
O        1.24390000       2.02400000      -0.06710000
C        1.99840000       1.06380000      -0.80840000
C        2.02360000       1.20900000      -2.31590000
C        1.75830000       0.05110000      -2.92460000
C        1.45170000      -1.06970000      -1.94700000
C        1.29710000      -0.27990000      -0.66040000
N        1.12950000      -0.73080000       0.72240000
C        0.02810000       0.00170000       0.04110000
H       -0.17780000       1.72550000       1.38080000
H       -0.83580000       1.94180000      -0.26160000
H        3.01420000       1.08580000      -0.39060000
H        2.28560000       2.13890000      -2.80670000
H        1.77270000      -0.11200000      -3.99680000
H        0.55670000      -1.64370000      -2.21490000
H        2.28350000      -1.78690000      -1.89170000
H        0.89950000      -1.72330000       0.73620000
H       -0.88590000      -0.52980000      -0.20340000
