21
Properties=species:S:1:pos:R:3 gdb_22282=T pbc="F F F"
C       -1.45190000      -0.47350000      -0.22680000
C        0.00620000      -0.04890000      -0.03410000
C        0.15590000       1.47140000      -0.13310000
N        0.48130000      -0.50520000       1.26610000
C        1.92430000      -0.32290000       1.58710000
C        1.92350000      -1.73750000       2.11380000
C        0.55860000      -1.97150000       1.50940000
N        2.75700000      -2.37300000       2.81770000
O        2.30070000      -3.67930000       3.07780000
H       -2.08330000      -0.02520000       0.54700000
H       -1.81850000      -0.15050000      -1.20590000
H       -1.56660000      -1.56040000      -0.17110000
H        0.61030000      -0.50920000      -0.84490000
H       -0.43730000       1.96260000       0.64490000
H        1.19800000       1.78360000      -0.01370000
H       -0.18700000       1.82690000      -1.10940000
H        2.56750000      -0.20670000       0.69870000
H        2.14590000       0.48400000       2.29260000
H       -0.21640000      -2.38090000       2.16470000
H        0.60790000      -2.58350000       0.59320000
H        3.00720000      -4.03530000       3.62740000
