11
Properties=species:S:1:pos:R:3 gdb_131988=T pbc="F F F"
N        0.01280000       1.32540000       0.13910000
C       -0.00430000      -0.02950000       0.04220000
N       -1.11380000      -0.74870000      -0.00580000
O       -0.63000000      -2.07200000      -0.03040000
C        0.68310000      -1.96230000      -0.00530000
N        1.16250000      -0.76720000       0.03770000
N        1.46020000      -3.20650000      -0.03120000
O        0.81600000      -4.24180000      -0.05130000
O        2.67050000      -3.08350000      -0.03040000
H        0.86770000       1.77330000      -0.14950000
H       -0.83950000       1.80610000      -0.10150000
