16
Properties=species:S:1:pos:R:3 gdb_50451=T pbc="F F F"
N        0.15450000       1.27430000       0.12610000
C        0.00130000       0.01630000       0.07270000
N       -1.22990000      -0.62210000       0.01730000
C       -1.26130000      -2.08950000      -0.12300000
C       -2.72470000      -2.49050000       0.10970000
C       -3.49540000      -1.18750000      -0.02150000
O       -4.68560000      -1.03670000      -0.09840000
C       -2.49590000      -0.04400000      -0.01690000
N       -2.79030000       1.19110000      -0.03260000
H        1.14830000       1.49430000       0.17500000
H        0.81500000      -0.72140000       0.07140000
H       -0.92730000      -2.38310000      -1.12570000
H       -0.58220000      -2.54790000       0.60090000
H       -3.09280000      -3.24430000      -0.58840000
H       -2.88220000      -2.87550000       1.12320000
H       -3.81380000       1.25160000      -0.04990000
