16
Properties=species:S:1:pos:R:3 gdb_25811=T pbc="F F F"
C        0.08530000       1.47110000       0.05920000
C       -0.00840000      -0.01530000      -0.02020000
N       -0.22260000      -0.71710000      -1.11950000
C       -0.19700000      -2.03030000      -0.73590000
C        0.02210000      -2.14390000       0.61680000
N        0.12580000      -0.83290000       1.06310000
C        0.10590000      -3.33740000       1.46720000
N       -0.01640000      -3.09670000       2.83260000
O        0.30720000      -4.44980000       1.02010000
H        1.07010000       1.79780000       0.41280000
H       -0.07660000       1.88280000      -0.93730000
H       -0.66640000       1.89120000       0.73690000
H       -0.35270000      -2.83660000      -1.43550000
H        0.41970000      -0.55380000       1.98490000
H       -0.65600000      -2.37050000       3.12110000
H       -0.08930000      -3.94590000       3.37640000
