11
Properties=species:S:1:pos:R:3 gdb_130728=T pbc="F F F"
O       -0.05640000      -0.07130000       0.00410000
C        0.02430000       1.12890000       0.00870000
N       -1.14580000       1.92710000       0.02900000
N       -1.20790000       3.25300000       0.03620000
N       -0.11710000       3.91050000       0.02400000
C        1.07330000       3.17010000       0.00370000
N        1.19260000       1.87430000      -0.00420000
C        2.24840000       3.97930000      -0.00890000
C        3.23230000       4.66990000      -0.01950000
H       -2.04450000       1.45980000       0.03940000
H        4.10640000       5.27500000      -0.02890000
