20
Properties=species:S:1:pos:R:3 gdb_58020=T pbc="F F F"
C        0.01970000       1.53950000      -0.09080000
C        0.05270000       0.01530000       0.07400000
C        0.82120000      -0.38180000       1.34200000
C       -1.37530000      -0.58940000       0.10730000
C       -2.23070000      -0.09160000      -0.97270000
N       -2.91020000       0.27180000      -1.83500000
C       -1.38480000      -2.14840000       0.01010000
C       -2.67600000      -2.82670000       0.40850000
O       -0.40980000      -2.74830000      -0.36180000
H        1.03940000       1.93490000      -0.12050000
H       -0.48670000       1.84050000      -1.01160000
H       -0.49600000       2.01870000       0.75000000
H        0.55800000      -0.42870000      -0.78980000
H        0.89490000      -1.46580000       1.44950000
H        1.83800000       0.02000000       1.30620000
H        0.33800000       0.02750000       2.23790000
H       -1.86620000      -0.31310000       1.05150000
H       -3.52550000      -2.38050000      -0.11790000
H       -2.61600000      -3.89340000       0.19160000
H       -2.85020000      -2.68220000       1.48160000
