15
Properties=species:S:1:pos:R:3 gdb_29414=T pbc="F F F"
N        0.07120000       1.41180000       0.15440000
C       -0.02660000       0.02200000       0.05360000
C       -1.14680000      -0.77440000       0.02630000
N       -0.66000000      -2.07890000      -0.00190000
C        0.68370000      -1.98500000       0.01020000
N        1.52670000      -3.09270000      -0.01070000
C        1.12210000      -4.39190000      -0.05150000
O       -0.03960000      -4.75670000      -0.07640000
N        1.11830000      -0.74290000       0.04110000
H        0.97370000       1.73390000      -0.17020000
H       -0.67020000       1.90320000      -0.32610000
H       -2.20050000      -0.55880000       0.03470000
H       -1.15260000      -2.95900000      -0.03190000
H        2.51170000      -2.87500000       0.00890000
H        1.97510000      -5.09220000      -0.06000000
