11
Properties=species:S:1:pos:R:3 gdb_48149=T pbc="F F F"
N        0.11670000       1.30530000      -0.81760000
C       -0.01900000       0.17570000      -0.28430000
O       -1.23800000      -0.45900000      -0.23180000
C       -2.33340000       0.19210000       0.31700000
O       -2.30940000       1.22030000       0.90750000
C       -3.56890000      -0.68560000       0.05260000
O       -4.64890000      -0.36490000       0.45270000
C        1.03100000      -0.64320000       0.28190000
N        1.90230000      -1.26600000       0.71720000
H        1.08600000       1.62060000      -0.79860000
H       -3.36740000      -1.60720000      -0.52570000
