19
Properties=species:S:1:pos:R:3 gdb_124630=T pbc="F F F"
C       -0.18880000       1.51240000       0.03030000
C        0.03430000      -0.00880000       0.04460000
C        0.75500000      -0.46370000       1.31490000
N       -1.20230000      -0.77760000      -0.09350000
C       -1.93170000      -0.72760000      -1.26580000
C       -1.53670000      -0.52030000      -2.57360000
N       -2.69680000      -0.66640000      -3.27520000
N       -3.73210000      -0.93680000      -2.48030000
N       -3.27630000      -0.97110000      -1.25560000
H        0.76520000       2.04940000       0.05770000
H       -0.72920000       1.82180000      -0.86880000
H       -0.77660000       1.82230000       0.90190000
H        0.66340000      -0.27680000      -0.81470000
H        0.15390000      -0.23430000       2.20330000
H        0.93420000      -1.54160000       1.29490000
H        1.71330000       0.05200000       1.42320000
H       -1.80930000      -0.73410000       0.71560000
H       -0.59480000      -0.30130000      -3.04340000
H       -2.84430000      -0.58910000      -4.26830000
