14
Properties=species:S:1:pos:R:3 gdb_129683=T pbc="F F F"
N       -0.08460000       1.46150000       0.01340000
C       -0.01840000       0.04960000      -0.01430000
C       -1.10840000      -0.79490000       0.00320000
N       -2.45720000      -0.48730000       0.04950000
C       -3.46320000      -1.40960000       0.06290000
O       -3.28810000      -2.61160000       0.03600000
N       -0.58370000      -2.03580000      -0.03500000
N        0.76960000      -1.98020000      -0.07560000
N        1.10340000      -0.72180000      -0.06220000
H        0.41420000       1.82890000       0.81900000
H        0.36530000       1.85850000      -0.80670000
H       -2.66710000       0.50120000       0.07370000
H       -4.46030000      -0.93900000       0.10180000
H       -1.09990000      -2.90360000      -0.03510000
