14
Properties=species:S:1:pos:R:3 gdb_3581=T pbc="F F F"
O        0.11490000       1.45270000       0.15710000
C       -0.04560000       0.07150000      -0.01760000
C       -1.34700000      -0.64770000       0.05860000
C       -2.46940000      -0.07910000      -0.82800000
C       -2.13840000       1.13170000      -1.60790000
N       -1.65090000      -0.19170000      -2.08000000
C       -0.50390000      -0.69050000      -1.23270000
H        0.90640000       1.71640000      -0.32580000
H        0.72810000      -0.51010000       0.49230000
H       -1.53510000      -1.42470000       0.78870000
H       -3.46840000      -0.50200000      -0.79400000
H       -2.92200000       1.50560000      -2.26210000
H       -1.45150000       1.86780000      -1.22030000
H        0.08680000      -1.49030000      -1.66470000
