23
Properties=species:S:1:pos:R:3 gdb_85970=T pbc="F F F"
C       -0.35120000       1.87670000      -0.10380000
C       -0.00100000       0.39200000      -0.06030000
C        1.12150000      -0.05910000      -1.05700000
C        1.79030000      -0.85260000       0.09590000
O        3.19200000      -0.87540000       0.20830000
C        0.94800000      -0.03650000       1.11120000
C       -1.20390000      -0.53870000      -0.14690000
C       -2.53540000      -0.25300000       0.50180000
C       -2.41490000      -0.26870000      -1.00460000
H        0.55880000       2.48130000      -0.03730000
H       -0.85580000       2.15170000      -1.03610000
H       -0.99710000       2.17010000       0.73050000
H        0.81670000      -0.60750000      -1.95200000
H        1.74890000       0.78670000      -1.36140000
H        1.49110000      -1.90430000       0.08290000
H        3.50250000       0.03610000       0.22370000
H        1.52050000       0.81640000       1.49390000
H        0.50390000      -0.56680000       1.95760000
H       -0.91580000      -1.58730000      -0.11290000
H       -3.05360000      -1.07150000       0.98950000
H       -2.68670000       0.70800000       0.98020000
H       -2.48660000       0.68200000      -1.52080000
H       -2.85040000      -1.09790000      -1.55150000
