19
Properties=species:S:1:pos:R:3 gdb_89705=T pbc="F F F"
C       -0.08230000       1.53710000       0.16770000
C        0.07840000       0.03280000      -0.03350000
C        1.22460000      -0.36710000      -1.02530000
C        2.08640000      -1.16640000      -0.02620000
C        1.04910000      -2.08800000       0.68260000
C        0.65110000      -0.69500000       1.20870000
O        2.06790000      -0.31890000       1.16570000
C        3.43990000      -1.67750000      -0.41480000
O        3.71150000      -2.07090000      -1.52100000
H        0.85560000       1.97200000       0.52570000
H       -0.35240000       2.03380000      -0.76970000
H       -0.86560000       1.75920000       0.90070000
H       -0.87830000      -0.41070000      -0.32890000
H        0.89590000      -0.97210000      -1.87190000
H        1.76800000       0.50040000      -1.40620000
H        0.35030000      -2.65720000       0.06560000
H        1.51020000      -2.70610000       1.45360000
H        0.18060000      -0.53200000       2.17880000
H        4.17650000      -1.69090000       0.41850000
