15
Properties=species:S:1:pos:R:3 gdb_11495=T pbc="F F F"
O        0.14540000       1.96790000       1.36700000
C        0.64160000       1.30450000       0.49280000
C        1.35300000       1.89810000      -0.73380000
O        1.81890000       1.12690000      -1.53900000
C        1.43300000       3.40750000      -0.82870000
C        2.60380000       3.94070000      -0.01080000
C        2.49860000       5.25730000       0.66580000
N        2.52760000       4.01590000       1.45390000
H        0.62360000       0.19530000       0.48430000
H        1.56190000       3.67120000      -1.88250000
H        0.50050000       3.84300000      -0.45560000
H        3.57630000       3.62060000      -0.37980000
H        3.37610000       5.88950000       0.76750000
H        1.55970000       5.79790000       0.57190000
H        1.58970000       3.76790000       1.76240000
