18
Properties=species:S:1:pos:R:3 gdb_28495=T pbc="F F F"
C       -0.01140000       1.51590000      -0.04080000
C        0.01500000       0.01100000      -0.00600000
N        0.00190000      -0.63520000      -1.17930000
C        0.02920000      -1.96000000      -1.16710000
C        0.06560000      -2.68350000       0.03560000
N        0.14960000      -4.06260000       0.06220000
N        0.06820000      -2.04880000       1.21100000
C        0.04820000      -0.71250000       1.19900000
C        0.05610000      -0.02060000       2.53590000
H        0.87000000       1.95110000       0.44560000
H       -0.03530000       1.85070000      -1.07900000
H       -0.88950000       1.92160000       0.47640000
H        0.02270000      -2.47070000      -2.12800000
H       -0.23020000      -4.55390000      -0.73190000
H       -0.09440000      -4.46800000       0.95380000
H        0.92930000       0.63410000       2.64080000
H       -0.82910000       0.61340000       2.66390000
H        0.07610000      -0.76420000       3.33360000
