17
Properties=species:S:1:pos:R:3 gdb_9617=T pbc="F F F"
C        0.12960000       1.25060000       0.23240000
O       -0.23060000      -0.03140000      -0.25290000
C        0.59510000      -0.53650000      -1.25330000
C        0.43000000       0.09390000      -2.61920000
C        1.92550000      -1.08880000      -0.82380000
C        0.78250000      -2.04290000      -1.17670000
C        0.14650000      -2.79750000      -0.13450000
N       -0.36030000      -3.43110000       0.68970000
H        1.16980000       1.27230000       0.58540000
H       -0.00020000       2.03290000      -0.52750000
H       -0.53650000       1.46210000       1.07090000
H        0.74140000       1.14330000      -2.60940000
H        1.03890000      -0.42310000      -3.36570000
H       -0.61760000       0.04890000      -2.93120000
H        2.76700000      -1.05180000      -1.50610000
H        2.17530000      -1.01680000       0.22780000
H        0.85430000      -2.56980000      -2.12230000
