19
Properties=species:S:1:pos:R:3 gdb_114188=T pbc="F F F"
C       -0.05920000       1.30140000      -0.47010000
C       -0.03430000      -0.06170000       0.22610000
N        0.66770000      -0.04100000       1.48570000
C        2.11430000       0.01900000       1.74490000
C        1.77640000      -0.49860000       3.15720000
C        2.51920000      -1.33970000       4.09240000
O        2.25930000       0.04700000       4.36000000
C        0.32470000      -0.56280000       2.73070000
N       -0.72200000      -0.97000000       3.31310000
H        0.95520000       1.65180000      -0.68540000
H       -0.59880000       1.23510000      -1.41980000
H       -0.54990000       2.04940000       0.15900000
H       -1.05680000      -0.39650000       0.43410000
H        0.41430000      -0.81350000      -0.44220000
H        2.71070000      -0.66310000       1.12460000
H        2.54540000       1.02490000       1.71150000
H        1.97070000      -2.04270000       4.71600000
H        3.55900000      -1.58860000       3.88550000
H       -1.55010000      -0.90010000       2.71980000
