21
Properties=species:S:1:pos:R:3 gdb_116807=T pbc="F F F"
C        0.21390000       0.86080000      -0.12340000
C       -0.30270000      -0.39380000      -0.83500000
N        0.65250000      -1.28300000      -1.47490000
C        1.88230000      -1.03630000      -1.44390000
O        2.75030000      -1.87380000      -2.06260000
C        4.13550000      -1.57720000      -1.90830000
C        4.92770000      -2.45940000      -2.84450000
C        4.47260000      -3.82790000      -3.18210000
N        4.42990000      -2.74950000      -4.19280000
H        0.89180000       0.61430000       0.70100000
H        0.74130000       1.53180000      -0.81000000
H       -0.63010000       1.41520000       0.29760000
H       -0.87570000      -1.00330000      -0.12360000
H       -1.02730000      -0.09960000      -1.60580000
H        2.36730000      -0.18010000      -0.95920000
H        4.31980000      -0.51850000      -2.14390000
H        4.44890000      -1.75140000      -0.86880000
H        5.99690000      -2.25960000      -2.79860000
H        5.20360000      -4.60790000      -3.37410000
H        3.53230000      -4.16400000      -2.75750000
H        3.46920000      -2.41770000      -4.25850000
