21
Properties=species:S:1:pos:R:3 gdb_85419=T pbc="F F F"
C        0.28810000       1.72230000      -0.11360000
C        0.06540000       0.21660000       0.06810000
C        0.61320000      -0.59390000      -1.12390000
C        2.04280000      -0.98160000      -0.73370000
O        2.87020000      -1.46510000      -1.46110000
C        2.24060000      -0.64220000       0.74810000
C        0.81850000      -0.40230000       1.28350000
C        0.75610000       0.40550000       2.57650000
O        0.16780000      -1.66910000       1.46760000
H        1.34890000       1.97010000      -0.23750000
H       -0.23190000       2.07140000      -1.01110000
H       -0.09360000       2.29750000       0.73420000
H       -1.00260000       0.03010000       0.21390000
H        0.05270000      -1.52450000      -1.26020000
H        0.60310000      -0.06120000      -2.07860000
H        2.78250000      -1.43520000       1.27150000
H        2.85580000       0.26430000       0.81270000
H        1.24690000       1.37760000       2.47840000
H       -0.28430000       0.56570000       2.87540000
H        1.25910000      -0.13580000       3.38660000
H        0.65050000      -2.15560000       2.14460000
