18
Properties=species:S:1:pos:R:3 gdb_33110=T pbc="F F F"
C       -0.32490000       1.44330000      -0.50630000
O       -0.30110000       0.03970000      -0.58620000
C       -0.96960000      -0.57950000       0.49040000
C       -0.91190000      -2.06250000       0.32290000
C       -0.34990000      -2.74230000      -0.70370000
O       -0.49640000      -4.09960000      -0.50710000
C       -1.15730000      -4.25850000       0.66110000
N       -1.46600000      -5.57080000       0.99420000
C       -1.44350000      -3.05190000       1.22690000
H        0.21350000       1.83000000      -1.37490000
H       -1.35390000       1.83720000      -0.52160000
H        0.16710000       1.80990000       0.40900000
H       -0.50850000      -0.28280000       1.45020000
H       -2.02000000      -0.23850000       0.53620000
H        0.16760000      -2.44670000      -1.59760000
H       -0.77010000      -6.22630000       0.66130000
H       -1.62600000      -5.69420000       1.98440000
H       -1.96080000      -2.88140000       2.15800000
