20
Properties=species:S:1:pos:R:3 gdb_73365=T pbc="F F F"
O       -0.06380000       1.37890000      -0.03370000
C        0.04330000      -0.03250000      -0.00040000
C        0.72100000      -0.62540000      -1.26160000
C        0.08570000      -2.02080000      -1.47490000
C       -1.24250000      -1.96350000      -0.72590000
C       -1.35710000      -0.67710000       0.00740000
N       -1.26680000      -1.93420000       0.75550000
C        0.03640000      -1.97710000       1.45820000
C        0.66450000      -0.57730000       1.30680000
H        0.82580000       1.74620000      -0.04420000
H        0.46260000       0.02840000      -2.10080000
H        1.81370000      -0.65410000      -1.18280000
H       -0.09280000      -2.22060000      -2.53520000
H        0.72610000      -2.83340000      -1.11300000
H       -2.10120000      -2.47080000      -1.15710000
H       -2.24260000      -0.05650000       0.09970000
H       -0.15070000      -2.22870000       2.50580000
H        0.67590000      -2.76780000       1.05030000
H        1.75940000      -0.59310000       1.29160000
H        0.34460000       0.07370000       2.12670000
