15
Properties=species:S:1:pos:R:3 gdb_43072=T pbc="F F F"
O        0.05240000       0.00110000      -0.03280000
C        0.01190000       1.19100000       0.03310000
C       -1.15110000       2.21320000       0.03970000
C       -1.46520000       2.84720000       1.42420000
N       -0.27770000       3.78420000       1.29270000
C        0.87470000       3.28350000       1.96150000
N        1.69500000       2.54650000       1.32160000
C        1.09550000       2.32550000      -0.00830000
C       -0.07600000       3.33260000      -0.13000000
H       -1.98390000       2.01390000      -0.63550000
H       -2.40170000       3.41040000       1.41530000
H       -1.44200000       2.19660000       2.30200000
H        1.01540000       3.54170000       3.00790000
H        1.84500000       2.24830000      -0.79680000
H       -0.09050000       4.11480000      -0.88620000
