14
Properties=species:S:1:pos:R:3 gdb_42162=T pbc="F F F"
O        0.03060000      -0.05140000       0.05530000
C       -0.00890000       1.15040000       0.00770000
C        1.21490000       1.95800000      -0.14560000
N        2.20840000       2.53640000      -0.26700000
C       -1.30840000       1.97650000       0.09820000
O       -1.22060000       3.18350000       0.03820000
C       -2.55310000       1.20880000       0.25140000
C       -3.66720000       1.85380000       1.07720000
C       -3.80980000       1.79070000      -0.39770000
H       -2.44360000       0.13360000       0.28690000
H       -4.25260000       1.18400000       1.69560000
H       -3.42480000       2.81320000       1.51980000
H       -3.66410000       2.70710000      -0.95800000
H       -4.49720000       1.07580000      -0.83390000
