12
Properties=species:S:1:pos:R:3 gdb_132022=T pbc="F F F"
N        0.08590000       1.37800000       0.18060000
C       -0.01020000       0.02060000       0.06470000
C       -1.15610000      -0.70110000       0.02400000
F       -2.31790000      -0.03250000       0.02870000
C       -1.15910000      -2.14830000      -0.02520000
O       -2.15150000      -2.83790000      -0.06370000
N        0.15310000      -2.72190000      -0.03420000
C        1.16960000      -1.97270000      -0.00620000
O        1.19330000      -0.60630000       0.04410000
H        0.92400000       1.79310000      -0.19870000
H       -0.76620000       1.87930000      -0.02020000
H        2.18720000      -2.35120000      -0.01850000
