17
Properties=species:S:1:pos:R:3 gdb_78678=T pbc="F F F"
C       -0.17380000       1.58290000      -0.02300000
C       -0.01740000       0.07170000      -0.01320000
C        1.22370000      -0.58020000      -0.66660000
C        2.15000000      -0.27040000       0.56400000
C        0.72700000      -0.62280000       1.15320000
C        1.07980000      -1.87290000       0.27180000
O        0.24570000      -2.94570000       0.11190000
C        2.55410000      -1.74310000       0.64550000
O        3.51050000      -2.42820000       0.85030000
H        0.75610000       2.09370000       0.24620000
H       -0.47510000       1.93650000      -1.01520000
H       -0.94720000       1.89890000       0.68580000
H       -0.96050000      -0.41870000      -0.27930000
H        1.54990000      -0.58730000      -1.70740000
H        2.72170000       0.63430000       0.73620000
H        0.48500000      -0.66350000       2.21580000
H        0.70390000      -3.61690000      -0.40620000
