11
Properties=species:S:1:pos:R:3 gdb_4738=T pbc="F F F"
O        0.11930000       1.33880000      -0.07930000
C        0.06880000      -0.00330000      -0.07280000
C       -0.03870000      -0.84510000      -1.13760000
O       -0.05180000      -2.12020000      -0.63790000
C        0.04880000      -1.97380000       0.70350000
N        0.12380000      -0.72580000       1.09100000
C        0.06130000      -3.13420000       1.50210000
C        0.07170000      -4.12690000       2.18120000
H        0.19530000       1.62050000       0.84080000
H       -0.10970000      -0.72780000      -2.20280000
H        0.08120000      -5.00090000       2.78490000
