20
Properties=species:S:1:pos:R:3 gdb_8191=T pbc="F F F"
C       -0.03700000       1.55950000       0.04180000
C        0.07190000       0.05010000       0.06530000
O       -1.09960000      -0.57690000      -0.41380000
C        1.32510000      -0.73690000      -0.25040000
C        2.58090000      -0.05620000       0.29630000
C        1.94270000      -0.06340000       1.72340000
C        0.69490000      -0.76940000       1.16580000
C       -0.04330000      -1.85150000       1.90070000
H        0.84950000       2.05560000       0.44190000
H       -0.17610000       1.91660000      -0.98660000
H       -0.90410000       1.88210000       0.62710000
H       -1.15580000      -0.40150000      -1.35940000
H        1.29470000      -1.49860000      -1.02270000
H        3.46530000      -0.69510000       0.24150000
H        2.83770000       0.91820000      -0.13270000
H        2.49490000      -0.70530000       2.41430000
H        1.78590000       0.90440000       2.21090000
H       -0.51040000      -1.45380000       2.81080000
H       -0.83200000      -2.27850000       1.27890000
H        0.63630000      -2.65550000       2.20620000
