21
Properties=species:S:1:pos:R:3 gdb_108795=T pbc="F F F"
C        0.01770000       1.35550000      -0.02000000
O       -0.04840000      -0.06030000       0.16670000
C       -1.27740000      -0.58050000       0.11540000
N       -2.36540000       0.05440000      -0.09200000
C       -3.44690000      -0.95700000      -0.03160000
C       -4.19830000      -0.79410000       1.29950000
C       -4.40070000      -0.78170000      -1.21460000
C       -2.69560000      -2.33250000      -0.08090000
N       -1.34980000      -1.94620000       0.35090000
H        1.07500000       1.61460000       0.04530000
H       -0.38780000       1.63520000      -0.99610000
H       -0.55370000       1.87230000       0.75570000
H       -4.59320000       0.22200000       1.38550000
H       -5.03400000      -1.49960000       1.36980000
H       -3.52640000      -0.97030000       2.14510000
H       -3.85590000      -0.83930000      -2.16160000
H       -5.17590000      -1.55660000      -1.21270000
H       -4.89150000       0.19460000      -1.16640000
H       -3.13420000      -3.07630000       0.59080000
H       -2.69250000      -2.74560000      -1.09960000
H       -0.56120000      -2.50060000       0.04950000
