13
Properties=species:S:1:pos:R:3 gdb_46246=T pbc="F F F"
O       -0.13040000       0.07380000      -0.21040000
C       -0.03650000       1.23130000       0.01930000
O       -0.99570000       2.08990000       0.52190000
C       -0.08240000       3.23200000       0.56300000
C        0.99320000       2.35330000      -0.06920000
O        2.34610000       2.27920000       0.26810000
C        2.01900000       2.62400000      -1.09700000
C        2.34320000       1.67870000      -2.12540000
C        2.62420000       0.91750000      -3.01080000
H       -0.46360000       4.06220000      -0.03430000
H        0.11970000       3.54140000       1.59060000
H        2.20620000       3.67050000      -1.33550000
H        2.86170000       0.22840000      -3.78410000
