12
Properties=species:S:1:pos:R:3 gdb_53774=T pbc="F F F"
N       -0.04940000       1.32860000       0.00820000
C        0.09360000      -0.01360000       0.00030000
O        1.13690000      -0.63310000      -0.01270000
C       -1.27390000      -0.73220000       0.00970000
O       -2.31680000      -0.10840000       0.02290000
C       -1.21120000      -2.16730000       0.00160000
C       -1.21830000      -3.38060000      -0.00460000
C       -1.21390000      -4.73630000      -0.01170000
C       -1.21270000      -5.94410000      -0.01800000
H        0.76440000       1.91950000       0.00390000
H       -0.97620000       1.72290000       0.01940000
H       -1.20620000      -7.00660000      -0.02360000
