18
Properties=species:S:1:pos:R:3 gdb_64979=T pbc="F F F"
C        0.01100000       1.44250000      -0.17890000
C        0.11510000      -0.06930000      -0.10890000
C        1.50440000      -0.69620000      -0.11230000
C        0.70720000      -0.69280000       1.14950000
C       -0.93170000      -0.93220000      -0.76780000
O       -0.89320000      -2.13890000      -0.74000000
N       -1.95570000      -0.22220000      -1.41680000
C       -3.04940000      -0.74020000      -2.10690000
O       -3.31760000      -1.89650000      -2.27330000
H        0.84990000       1.90300000       0.34960000
H        0.04620000       1.81250000      -1.21110000
H       -0.90500000       1.81660000       0.29500000
H        1.60180000      -1.63940000      -0.63580000
H        2.34400000      -0.01630000      -0.20540000
H        0.98540000      -0.01060000       1.94520000
H        0.27400000      -1.63380000       1.46590000
H       -1.90760000       0.78440000      -1.38930000
H       -3.67000000       0.09160000      -2.50150000
