19
Properties=species:S:1:pos:R:3 gdb_108358=T pbc="F F F"
O        0.05150000       1.35880000      -0.14820000
C       -0.02480000      -0.04850000       0.01690000
C       -1.47560000      -0.45490000      -0.03840000
O       -1.61930000      -1.90230000       0.03120000
C       -2.38310000      -1.92570000      -1.20760000
C       -2.38120000      -0.38780000      -1.28300000
C       -3.42260000       0.39600000      -0.45050000
C       -3.82450000      -0.31610000       0.81230000
C       -2.49520000       0.37540000       0.77610000
H        0.97400000       1.61900000      -0.07650000
H        0.52800000      -0.58430000      -0.76960000
H        0.38530000      -0.37170000       0.98840000
H       -1.81740000      -2.42020000      -2.00680000
H       -3.35100000      -2.42550000      -1.08810000
H       -2.05470000       0.09530000      -2.20230000
H       -4.00210000       1.22380000      -0.83950000
H       -4.58740000       0.19490000       1.39130000
H       -3.87070000      -1.39790000       0.87260000
H       -2.22730000       1.18250000       1.44560000
