18
Properties=species:S:1:pos:R:3 gdb_19934=T pbc="F F F"
C        0.26600000       1.62580000       0.25810000
C        1.36410000       0.65500000      -0.07940000
O        2.17490000       0.16680000       0.95820000
C        1.40090000      -0.62900000       1.84630000
C        0.82940000       0.05910000       3.12020000
C       -0.61690000      -0.25000000       2.62920000
C       -0.04580000      -0.77100000       1.27560000
C       -0.04680000       0.14900000       0.06460000
H        0.23890000       2.05270000       1.25400000
H       -0.06440000       2.30100000      -0.52480000
H        1.89310000       0.71600000      -1.02410000
H        1.95610000      -1.55020000       2.04750000
H        1.11750000      -0.40370000       4.06720000
H        1.08130000       1.12080000       3.16690000
H       -1.11160000      -1.03090000       3.21140000
H       -1.29590000       0.60240000       2.55510000
H       -0.36340000      -1.77550000       0.98820000
H       -0.63200000      -0.13980000      -0.80040000
