22
Properties=species:S:1:pos:R:3 gdb_110021=T pbc="F F F"
C        0.09740000       1.62500000       0.04990000
C        0.07280000       0.09720000       0.15510000
C       -1.34720000      -0.50230000       0.03280000
C       -1.41330000      -2.05150000       0.02260000
C       -0.30090000      -2.81350000      -0.69270000
C       -1.52370000      -2.36230000       1.52170000
O       -2.24780000      -1.26040000       2.08700000
C       -2.19160000      -0.17630000       1.25310000
N       -2.76210000       0.92610000       1.49260000
H        1.11700000       2.00340000       0.17270000
H       -0.26560000       1.95280000      -0.93050000
H       -0.54270000       2.08380000       0.80640000
H        0.69650000      -0.32850000      -0.63880000
H        0.52700000      -0.21640000       1.10410000
H       -1.82400000      -0.07700000      -0.85450000
H       -2.37130000      -2.32640000      -0.43650000
H        0.67720000      -2.63490000      -0.23660000
H       -0.49050000      -3.89170000      -0.65650000
H       -0.23860000      -2.52690000      -1.74720000
H       -2.07680000      -3.27920000       1.74160000
H       -0.53610000      -2.42940000       1.99800000
H       -3.24690000       0.88630000       2.39160000
