13
Properties=species:S:1:pos:R:3 gdb_129051=T pbc="F F F"
N       -0.08020000       1.21050000       0.75440000
C       -0.00450000       0.13270000       0.07040000
C        1.23410000      -0.50100000      -0.35040000
C        1.48620000      -1.61200000      -1.05820000
O        0.71490000      -2.55650000      -1.64410000
N       -0.66120000      -2.62420000      -1.66560000
C       -1.42760000      -1.76260000      -1.10810000
C       -1.32880000      -0.49700000      -0.30810000
O       -2.37890000       0.00030000       0.02300000
H        0.85510000       1.56820000       0.96660000
H        2.13560000       0.01840000      -0.03570000
H        2.51580000      -1.89480000      -1.25360000
H       -2.47470000      -2.02330000      -1.25700000
