20
Properties=species:S:1:pos:R:3 gdb_60652=T pbc="F F F"
N        0.01210000       1.24820000      -0.12420000
C        0.07180000      -0.10070000      -0.01600000
O        1.12260000      -0.71850000       0.05520000
C       -1.26710000      -0.85770000       0.02190000
O       -0.99540000      -2.23220000      -0.05120000
C       -2.06620000      -0.53880000       1.28920000
C       -2.82310000       0.81540000       1.42060000
C       -4.00500000       0.04390000       2.06900000
C       -3.42590000      -1.26720000       1.47230000
H        0.87080000       1.77390000      -0.10990000
H       -0.86270000       1.74150000      -0.15240000
H       -1.86590000      -0.55360000      -0.85380000
H       -0.02570000      -2.29260000       0.00560000
H       -1.42580000      -0.70850000       2.16180000
H       -2.35210000       1.61430000       1.99890000
H       -3.10860000       1.21250000       0.43790000
H       -3.94210000       0.05790000       3.16070000
H       -5.01670000       0.33350000       1.77680000
H       -3.87730000      -1.50890000       0.50500000
H       -3.43560000      -2.16530000       2.09150000
