17
Properties=species:S:1:pos:R:3 gdb_52058=T pbc="F F F"
O       -0.17340000       0.05540000       0.23120000
C        0.02820000       1.17590000      -0.15450000
C        1.41380000       1.77660000      -0.29780000
O        1.28000000       3.01480000      -0.96750000
C        2.48010000       3.72380000      -1.11830000
C        3.36140000       3.34740000      -2.29920000
C        2.52530000       4.60040000      -2.34230000
C        3.09310000       4.16980000       0.10760000
C        3.59150000       4.52020000       1.14480000
H       -0.79310000       1.87340000      -0.43030000
H        1.84550000       1.90870000       0.70650000
H        2.06200000       1.07720000      -0.84610000
H        4.43480000       3.43670000      -2.18330000
H        3.02480000       2.50200000      -2.88860000
H        1.63040000       4.58750000      -2.95330000
H        3.01700000       5.56130000      -2.25390000
H        4.03180000       4.84130000       2.05650000
