17
Properties=species:S:1:pos:R:3 gdb_34652=T pbc="F F F"
C        0.09480000      -1.27710000       0.29930000
C       -0.00560000      -0.08500000       0.15890000
C       -0.08170000       1.33210000      -0.01450000
C       -1.28700000       1.93960000      -0.00330000
C       -1.48340000       3.41930000      -0.16780000
O       -0.64860000       4.19340000       0.68540000
C        0.62330000       4.48630000       0.16460000
C        1.48930000       3.32010000      -0.21130000
C        1.20500000       2.01170000      -0.24460000
H        0.16880000      -2.32840000       0.42780000
H       -2.17320000       1.33160000       0.14740000
H       -1.32620000       3.71230000      -1.21960000
H       -2.51250000       3.68550000       0.09200000
H        0.55180000       5.16930000      -0.70310000
H        1.12980000       5.05640000       0.95510000
H        2.50720000       3.61380000      -0.46500000
H        2.01740000       1.33560000      -0.49610000
