17
Properties=species:S:1:pos:R:3 gdb_60885=T pbc="F F F"
O       -0.45030000       1.22510000       0.11910000
C       -0.00160000      -0.09530000      -0.02000000
C        0.91200000      -0.19530000      -1.23430000
O        1.17340000       0.78560000      -1.89080000
C        0.73080000      -0.57710000       1.23910000
C        1.73410000       0.35530000       1.91460000
C        0.42200000       0.10630000       2.56870000
C        1.02080000      -2.02410000       1.30890000
O        0.77020000      -2.81780000       0.43100000
H       -0.04390000       1.71030000      -0.61900000
H       -0.84670000      -0.78100000      -0.19550000
H        1.31390000      -1.19470000      -1.47160000
H        2.63020000      -0.08530000       2.33770000
H        1.87590000       1.30960000       1.42070000
H       -0.32470000       0.88810000       2.51850000
H        0.38910000      -0.52240000       3.45210000
H        1.49930000      -2.35140000       2.26030000
