19
Properties=species:S:1:pos:R:3 gdb_71827=T pbc="F F F"
C       -0.07900000       1.52150000       0.03180000
C       -0.03620000       0.02170000      -0.01070000
C        0.70700000      -0.80260000      -1.05820000
C       -0.23180000      -2.03050000      -0.72100000
C        0.45170000      -2.81790000       0.37830000
C        0.47040000      -2.07760000       1.49090000
C       -0.31130000      -0.82570000       1.26080000
O       -0.78690000      -0.08110000       2.33860000
C       -1.15470000      -1.01220000       0.02090000
H        0.92120000       1.93260000       0.21460000
H       -0.43670000       1.93270000      -0.91920000
H       -0.73440000       1.87220000       0.83160000
H        0.48760000      -0.41150000      -2.05600000
H        1.78680000      -0.95620000      -0.95240000
H       -0.61680000      -2.59590000      -1.56820000
H        0.99010000      -3.74210000       0.20750000
H        0.99470000      -2.28270000       2.41610000
H       -1.45030000      -0.61240000       2.79250000
H       -2.23310000      -0.90260000      -0.01820000
