17
Properties=species:S:1:pos:R:3 gdb_72578=T pbc="F F F"
C       -0.32760000       1.47970000       0.08850000
C        0.02600000       0.02160000       0.01750000
C        1.12850000      -0.47230000      -0.96600000
C        1.83580000      -1.13000000       0.23210000
O        2.97490000      -1.43680000       0.45910000
C        0.69180000      -0.85010000       1.19460000
O        1.00610000      -0.50180000       2.49270000
C       -0.58050000      -1.70370000       1.02690000
O       -1.11260000      -0.86170000      -0.01400000
H        0.57390000       2.09680000       0.15380000
H       -0.88290000       1.77950000      -0.80690000
H       -0.95170000       1.68000000       0.96340000
H        0.75890000      -1.14860000      -1.73970000
H        1.74490000       0.30600000      -1.42510000
H        1.96820000      -0.43420000       2.55240000
H       -0.45620000      -2.74680000       0.71510000
H       -1.19270000      -1.66080000       1.93480000
