15
Properties=species:S:1:pos:R:3 gdb_6083=T pbc="F F F"
C       -0.23140000       1.56700000      -0.07060000
C        0.07480000       0.06820000       0.05820000
O       -1.08930000      -0.68980000       0.37050000
C        0.75440000      -0.44390000      -1.13770000
C        1.28700000      -0.85460000      -2.13880000
C        1.98010000      -1.29690000      -3.34160000
N        1.60890000      -2.54250000      -3.76310000
O        2.79790000      -0.60850000      -3.92000000
H        0.68740000       2.14050000      -0.21980000
H       -0.88880000       1.75200000      -0.92640000
H       -0.72900000       1.91290000       0.83890000
H        0.73860000      -0.08350000       0.91820000
H       -1.68940000      -0.62280000      -0.38100000
H        1.03660000      -3.13610000      -3.18790000
H        2.11520000      -2.94650000      -4.53460000
