21
Properties=species:S:1:pos:R:3 gdb_6562=T pbc="F F F"
C        0.13700000       1.55230000       0.06300000
C        0.06830000       0.01620000       0.02140000
C        0.64380000      -0.58400000       1.30430000
O       -1.29190000      -0.40250000      -0.05240000
C        0.81060000      -0.55330000      -1.20610000
N        0.09500000      -0.19620000      -2.43080000
C        0.65850000       0.85530000      -3.27310000
C        0.71590000      -0.57030000      -3.69530000
H        1.16990000       1.91000000       0.14210000
H       -0.30990000       1.98680000      -0.83550000
H       -0.42280000       1.92010000       0.92750000
H        0.08470000      -0.21850000       2.17040000
H        0.56320000      -1.67460000       1.28520000
H        1.69580000      -0.31000000       1.43280000
H       -1.52950000      -0.32080000      -0.98740000
H        1.86220000      -0.22010000      -1.22010000
H        0.80470000      -1.64640000      -1.12980000
H       -0.05610000       1.53650000      -3.72600000
H        1.58870000       1.31860000      -2.94940000
H        1.68600000      -1.06250000      -3.65590000
H        0.04390000      -0.94830000      -4.46060000
