16
Properties=species:S:1:pos:R:3 gdb_56700=T pbc="F F F"
C       -0.19330000       1.61150000       0.54350000
C       -0.07520000       0.13630000       0.10140000
C        0.82800000      -0.60730000       0.97460000
C        1.59080000      -1.19280000       1.69520000
C       -1.46850000      -0.51010000       0.03190000
C       -1.75360000      -1.88880000       0.47540000
O       -2.12280000      -0.76300000       1.27270000
C       -2.32380000       0.05640000      -1.00160000
N       -2.97200000       0.51700000      -1.84030000
H        0.79370000       2.07780000       0.56090000
H       -0.83090000       2.16680000      -0.14980000
H       -0.62480000       1.66940000       1.54550000
H        0.33010000       0.11020000      -0.91920000
H        2.26740000      -1.70850000       2.33130000
H       -2.58050000      -2.43060000       0.02160000
H       -0.92840000      -2.48080000       0.86140000
