19
Properties=species:S:1:pos:R:3 gdb_38584=T pbc="F F F"
C       -0.01960000       1.48700000       0.08280000
C        1.30470000       0.77070000      -0.04960000
C        2.18510000       0.50830000       1.22010000
C        1.59870000      -0.82620000       1.72150000
C        0.74970000      -1.30090000       2.95060000
C       -0.16710000      -0.08030000       2.81940000
C        0.12190000      -0.67310000       1.40230000
O       -0.13840000      -2.02180000       1.96800000
C       -0.01030000      -0.02010000       0.04770000
H       -0.26050000       1.97660000       1.02110000
H       -0.39420000       2.00780000      -0.79280000
H        1.81750000       0.84980000      -1.00170000
H        3.23990000       0.42670000       0.94850000
H        2.09830000       1.33010000       1.93660000
H        2.03430000      -1.67900000       1.19440000
H        1.03470000      -1.87260000       3.83370000
H       -1.18620000      -0.22610000       3.17780000
H        0.23790000       0.89870000       3.08150000
H       -0.42640000      -0.56140000      -0.79290000
