19
Properties=species:S:1:pos:R:3 gdb_96619=T pbc="F F F"
C        0.03910000       1.39900000       0.01740000
N        0.04650000      -0.05130000      -0.00550000
C       -1.08530000      -0.64630000       0.06080000
N       -2.33250000      -0.09730000       0.18000000
C       -1.10480000      -2.15530000       0.01660000
O       -2.16780000      -2.74480000      -0.05840000
C        0.20120000      -2.93650000       0.06260000
C        0.81690000      -2.86810000       1.47320000
O       -0.03960000      -4.27010000      -0.31990000
H        1.06490000       1.77240000      -0.01180000
H       -0.49380000       1.82350000      -0.84930000
H       -0.44520000       1.79480000       0.92370000
H       -2.47650000       0.86830000      -0.06020000
H       -3.10230000      -0.73310000       0.03350000
H        0.89960000      -2.47490000      -0.64460000
H        0.11070000      -3.24760000       2.21880000
H        1.70530000      -3.50400000       1.49160000
H        1.09900000      -1.84420000       1.72480000
H       -0.99900000      -4.39260000      -0.26700000
