18
Properties=species:S:1:pos:R:3 gdb_29799=T pbc="F F F"
C       -0.04890000       1.43020000       0.05400000
N       -0.05160000      -0.01810000       0.03040000
C       -0.04910000      -0.79540000      -1.09460000
C        0.03380000      -2.12710000      -0.73420000
C        0.04700000      -3.30260000      -1.66480000
C        0.09100000      -2.15260000       0.68100000
C        0.04040000      -0.84340000       1.13950000
C        0.06260000      -0.33770000       2.45340000
C        0.08060000       0.09920000       3.57780000
H        0.96920000       1.83370000       0.00550000
H       -0.61920000       1.80880000      -0.79730000
H       -0.51540000       1.77870000       0.97680000
H       -0.10930000      -0.34210000      -2.07250000
H        0.95430000      -3.90560000      -1.54360000
H       -0.80560000      -3.96920000      -1.49060000
H        0.00370000      -2.97890000      -2.70900000
H        0.14950000      -3.02490000       1.31400000
H        0.09840000       0.47200000       4.57150000
