18
Properties=species:S:1:pos:R:3 gdb_46919=T pbc="F F F"
O        0.01890000      -0.08420000       0.34620000
C        0.00960000       1.11060000       0.10680000
C       -1.35280000       1.77490000      -0.16180000
O       -1.41030000       3.17530000      -0.36290000
C       -0.79500000       3.57790000      -1.54960000
C       -0.16380000       4.93250000      -1.54120000
C        0.70720000       3.69120000      -1.50520000
C        1.32910000       3.27280000      -0.18770000
N        1.15880000       1.84580000       0.07570000
H       -1.79080000       1.23340000      -1.01340000
H       -1.97490000       1.56040000       0.71080000
H       -1.28020000       3.21940000      -2.45760000
H       -0.19610000       5.51700000      -2.45330000
H       -0.25360000       5.50970000      -0.62730000
H        1.26510000       3.42890000      -2.39880000
H        2.40450000       3.46920000      -0.19310000
H        0.90020000       3.86520000       0.62710000
H        1.97600000       1.29590000       0.29700000
