25
Properties=species:S:1:pos:R:3 gdb_117724=T pbc="F F F"
C       -0.13880000       1.41630000       0.01110000
O       -0.01670000       0.01590000       0.00230000
C       -1.26280000      -0.64840000       0.01060000
C       -1.04790000      -2.17330000       0.00040000
C       -0.26740000      -2.55750000      -1.27150000
C       -0.24320000      -2.57110000       1.25280000
C       -2.45670000      -2.81000000       0.01040000
C       -2.51440000      -4.33410000       0.00290000
O       -3.89070000      -4.69490000       0.01400000
H        0.87090000       1.83450000       0.00370000
H       -0.68300000       1.78550000      -0.87310000
H       -0.66590000       1.77580000       0.90940000
H       -1.83960000      -0.35710000       0.90600000
H       -1.85660000      -0.34760000      -0.87030000
H        0.66200000      -1.98650000      -1.33100000
H       -0.01340000      -3.62150000      -1.28140000
H       -0.85330000      -2.34350000      -2.17290000
H       -0.81170000      -2.36690000       2.16750000
H        0.01090000      -3.63510000       1.24640000
H        0.68730000      -2.00060000       1.30060000
H       -3.00590000      -2.46550000       0.89610000
H       -3.02270000      -2.45620000      -0.86080000
H       -2.01260000      -4.73440000      -0.89090000
H       -1.99570000      -4.74390000       0.88260000
H       -3.94750000      -5.65470000       0.00960000
