16
Properties=species:S:1:pos:R:3 gdb_24630=T pbc="F F F"
C        0.12430000       1.54620000      -0.04120000
N        1.31040000       0.66700000      -0.06680000
C       -0.01310000       0.07590000       0.02400000
C       -0.48300000      -0.86710000       1.18420000
N       -1.09470000      -1.68760000       0.11230000
C       -1.86310000      -2.68960000      -0.42610000
C       -1.85280000      -2.40360000      -1.78140000
N       -1.12870000      -1.25880000      -2.08210000
C       -0.70580000      -0.88140000      -0.90000000
H        0.02270000       2.14550000       0.85950000
H       -0.19310000       2.03550000      -0.95810000
H        1.67380000       0.57130000      -1.01210000
H        0.32420000      -1.36920000       1.72190000
H       -1.20930000      -0.44210000       1.88140000
H       -2.31350000      -3.48440000       0.14310000
H       -2.33220000      -2.97250000      -2.56430000
