15
Properties=species:S:1:pos:R:3 gdb_18462=T pbc="F F F"
C        0.20420000       0.89190000      -0.37680000
O       -0.44920000      -0.02900000       0.48330000
C        0.40170000      -0.63340000       1.38040000
C        0.15060000      -2.01650000       1.84350000
O       -0.43730000      -2.80920000       0.78790000
C        0.71170000      -2.64660000       0.01430000
N        1.02510000      -3.15090000      -1.08760000
C        1.39180000      -1.74360000       0.99160000
H        0.97340000       0.39380000      -0.98080000
H       -0.56200000       1.30560000      -1.03490000
H        0.67050000       1.71090000       0.19040000
H        0.82070000       0.02670000       2.14560000
H        0.02010000      -2.36960000       2.85770000
H        0.28040000      -3.75180000      -1.44450000
H        2.44660000      -1.71890000       1.22290000
