16
Properties=species:S:1:pos:R:3 gdb_51986=T pbc="F F F"
N        0.85390000       0.28140000      -0.20930000
C       -0.33370000       0.62810000       0.06980000
N       -1.39600000      -0.18780000      -0.30200000
C       -2.71700000       0.10540000      -0.04000000
O       -3.08040000       1.11840000       0.51440000
C       -3.69560000      -0.99820000      -0.46410000
O       -4.98530000      -0.49830000      -0.70700000
C       -5.72550000      -0.15220000       0.37760000
N       -6.86970000       0.34300000       0.20540000
H        1.51640000       0.97860000       0.12500000
H       -0.66810000       1.52760000       0.58940000
H       -1.14640000      -1.03280000      -0.79790000
H       -3.36910000      -1.47440000      -1.39300000
H       -3.69690000      -1.76930000       0.32210000
H       -5.23230000      -0.36700000       1.33230000
H       -7.30680000       0.53040000       1.10510000
