18
Properties=species:S:1:pos:R:3 gdb_41520=T pbc="F F F"
C        0.03350000       1.38480000      -0.34740000
C        1.45520000       1.49770000       0.28560000
C        1.31900000       0.01700000       0.62340000
N        2.08230000      -0.84950000       1.12130000
C        1.61150000      -2.22710000       1.19060000
C        0.12150000      -2.44920000       1.56370000
N       -0.89440000      -2.16490000       0.55820000
C       -0.91020000      -1.03610000      -0.02390000
N        0.01800000      -0.02140000       0.09360000
H       -0.74180000       2.00170000       0.11550000
H       -0.00120000       1.50450000      -1.43450000
H        2.26370000       1.73550000      -0.40710000
H        1.51620000       2.15590000       1.15400000
H        1.80720000      -2.72150000       0.23010000
H        2.22350000      -2.74890000       1.93530000
H        0.00910000      -3.50100000       1.84850000
H       -0.09170000      -1.85760000       2.46560000
H       -1.72750000      -0.79410000      -0.70610000
