11
Properties=species:S:1:pos:R:3 gdb_132083=T pbc="F F F"
O        0.00970000       1.33640000       0.00800000
C       -0.00670000       0.00150000       0.00080000
C       -1.18300000      -0.68780000       0.00340000
F       -2.35540000      -0.06320000       0.01310000
C       -1.20460000      -2.12350000      -0.00440000
O       -2.13330000      -2.87300000      -0.00340000
O        0.11690000      -2.68660000      -0.01460000
C        1.19340000      -1.91290000      -0.01620000
N        1.21220000      -0.62970000      -0.00930000
H        0.93900000       1.60570000       0.00440000
H        2.11640000      -2.48440000      -0.02430000
