23
Properties=species:S:1:pos:R:3 gdb_108253=T pbc="F F F"
C        0.01610000       1.59440000      -0.03450000
C       -0.00650000       0.06830000      -0.19730000
C       -1.38980000      -0.52140000      -0.01430000
C       -2.46410000      -0.27230000      -1.11410000
C       -2.80150000      -1.79520000      -1.14980000
C       -1.74720000      -2.05160000      -0.04290000
C       -0.79040000      -3.20880000      -0.16370000
O       -2.34350000      -1.96220000       1.27640000
C       -1.99000000      -0.56770000       1.40420000
H        1.02500000       1.99260000      -0.17800000
H       -0.64170000       2.08060000      -0.76280000
H       -0.31930000       1.89180000       0.96510000
H        0.37410000      -0.19720000      -1.19250000
H        0.68260000      -0.38590000       0.52680000
H       -3.28240000       0.39570000      -0.83180000
H       -2.03430000       0.09440000      -2.05040000
H       -3.81420000      -2.07420000      -0.85160000
H       -2.56880000      -2.27260000      -2.10580000
H       -0.30390000      -3.21700000      -1.14440000
H       -0.01900000      -3.16580000       0.61100000
H       -1.33260000      -4.15440000      -0.04710000
H       -1.26040000      -0.41400000       2.21200000
H       -2.86410000       0.06930000       1.59250000
