21
Properties=species:S:1:pos:R:3 gdb_57467=T pbc="F F F"
C       -0.10480000       1.55050000       0.16740000
C       -0.04130000       0.01580000       0.05320000
C        0.79070000      -0.54550000       1.22250000
C       -1.46400000      -0.56970000       0.09520000
C        0.63850000      -0.42360000      -1.26200000
C        0.16060000       0.10330000      -2.63170000
O        1.48030000       0.69040000      -2.87750000
C        1.94700000       0.27240000      -1.65710000
O        3.02130000       0.47100000      -1.18490000
H        0.89590000       1.99300000       0.15030000
H       -0.69180000       2.00120000      -0.63950000
H       -0.57930000       1.83700000       1.11130000
H        0.35940000      -0.23890000       2.18100000
H        0.81340000      -1.64070000       1.20100000
H        1.82240000      -0.18540000       1.17760000
H       -2.08350000      -0.18400000      -0.72220000
H       -1.44750000      -1.66240000       0.01930000
H       -1.95920000      -0.30810000       1.03630000
H        0.76360000      -1.51130000      -1.25900000
H       -0.07400000      -0.64790000      -3.38820000
H       -0.60490000       0.88100000      -2.61640000
