19
Properties=species:S:1:pos:R:3 gdb_67973=T pbc="F F F"
C        0.01500000       1.51900000      -0.04640000
C        0.03860000       0.00530000      -0.00740000
C        0.47440000      -0.70070000      -1.29520000
C        0.36040000      -2.15940000      -0.83630000
O        0.58670000      -3.16480000      -1.45890000
C       -0.10640000      -2.01550000       0.58710000
C        0.64660000      -0.78580000       1.21380000
C       -0.61930000      -0.48070000       2.05010000
C       -1.13640000      -0.82850000       0.63360000
H        1.01060000       1.91230000      -0.28130000
H       -0.66600000       1.87200000      -0.82900000
H       -0.30420000       1.96660000       0.89800000
H       -0.18280000      -0.50050000      -2.14900000
H        1.49860000      -0.46010000      -1.60210000
H       -0.27740000      -2.91330000       1.17870000
H        1.68900000      -0.78150000       1.54040000
H       -0.85870000      -1.19810000       2.83880000
H       -0.75970000       0.54150000       2.40650000
H       -2.17060000      -0.87400000       0.28460000
