22
Properties=species:S:1:pos:R:3 gdb_113455=T pbc="F F F"
C        0.01820000       1.50300000      -0.29930000
C       -0.04520000       0.09110000       0.29480000
C       -1.43220000      -0.51570000       0.22870000
C       -1.90750000      -1.20930000      -1.03240000
C       -1.63050000      -2.00500000       0.20800000
C       -0.62920000      -3.15930000       0.35270000
N       -1.65910000      -4.01850000       1.04750000
C       -2.04270000      -3.28030000       2.26490000
C       -2.62230000      -2.84180000       0.97850000
H        1.02990000       1.91600000      -0.23690000
H       -0.28210000       1.49950000      -1.35220000
H       -0.65390000       2.18470000       0.23350000
H        0.66040000      -0.56160000      -0.23520000
H        0.29350000       0.11810000       1.33920000
H       -2.19350000       0.04800000       0.76610000
H       -2.94020000      -1.07930000      -1.34120000
H       -1.20540000      -1.29980000      -1.85730000
H       -0.33960000      -3.61920000      -0.59540000
H        0.26820000      -2.98290000       0.95720000
H       -2.66860000      -3.86620000       2.93140000
H       -1.30230000      -2.65680000       2.76330000
H       -3.67000000      -2.97680000       0.72520000
