20
Properties=species:S:1:pos:R:3 gdb_16223=T pbc="F F F"
C       -0.36800000       1.45970000       0.03520000
C       -0.11630000      -0.01570000       0.00250000
C        0.09350000      -0.76400000      -1.08510000
C        0.35360000      -2.21490000      -0.75940000
C       -0.03220000      -2.31090000       0.73990000
C       -0.04370000      -0.85920000       1.23870000
C        0.78990000      -0.42890000       2.43290000
C       -0.71200000      -0.48390000       2.53900000
H        0.37440000       1.98490000       0.64950000
H       -0.33230000       1.88820000      -0.96970000
H       -1.35060000       1.69050000       0.46520000
H        0.11970000      -0.37770000      -2.09880000
H       -0.22850000      -2.90440000      -1.38150000
H        1.40970000      -2.47010000      -0.92770000
H       -1.03770000      -2.73690000       0.83330000
H        0.64420000      -2.95000000       1.31440000
H        1.37050000      -1.19430000       2.93780000
H        1.26560000       0.54610000       2.41110000
H       -1.25350000       0.45480000       2.59480000
H       -1.15650000      -1.28520000       3.12120000
