23
Properties=species:S:1:pos:R:3 gdb_118486=T pbc="F F F"
C        0.06870000       1.46350000      -0.04680000
C       -0.08400000      -0.05490000       0.09190000
C       -1.53930000      -0.57140000       0.02210000
C       -1.54320000      -2.10050000      -0.03540000
O       -2.80040000      -2.56100000      -0.49730000
C       -2.84720000      -3.96160000      -0.63380000
C       -2.36080000      -0.00770000       1.17130000
C       -3.41980000      -0.72720000       1.88660000
O       -2.12240000      -0.55900000       2.47290000
H        1.12660000       1.74170000      -0.07730000
H       -0.39630000       1.82670000      -0.97040000
H       -0.38370000       2.00330000       0.79010000
H        0.49120000      -0.54030000      -0.70570000
H        0.36030000      -0.38460000       1.03930000
H       -1.99360000      -0.21150000      -0.91180000
H       -0.75050000      -2.44230000      -0.72050000
H       -1.32030000      -2.51470000       0.96080000
H       -2.09930000      -4.32470000      -1.35660000
H       -2.67110000      -4.47450000       0.32500000
H       -3.84430000      -4.22310000      -0.99660000
H       -2.43070000       1.08090000       1.17340000
H       -4.21840000      -0.16150000       2.36560000
H       -3.67360000      -1.73860000       1.58540000
