21
Properties=species:S:1:pos:R:3 gdb_94190=T pbc="F F F"
C        0.07350000       1.60150000      -0.07070000
C        0.03490000       0.07970000      -0.02800000
O        0.99390000      -0.47000000      -0.99350000
C        1.90380000      -0.86870000       0.04750000
C        0.85760000      -0.55050000       1.13440000
O        1.20140000       0.34790000       2.16060000
C       -1.32380000      -0.54600000      -0.24180000
C       -2.55650000      -0.07110000       0.49220000
C       -2.44610000       0.11830000      -0.99870000
H        1.07040000       1.96220000       0.18750000
H       -0.16770000       1.94360000      -1.08070000
H       -0.63170000       2.04870000       0.63550000
H        2.22390000      -1.91190000      -0.05990000
H        2.78790000      -0.21910000       0.10640000
H        0.37070000      -1.44780000       1.53590000
H        1.60810000      -0.14640000       2.87820000
H       -1.24790000      -1.62170000      -0.37640000
H       -3.24000000      -0.82190000       0.87280000
H       -2.47430000       0.80860000       1.12100000
H       -2.29540000       1.12590000      -1.36750000
H       -3.05370000      -0.50320000      -1.64680000
