20
Properties=species:S:1:pos:R:3 gdb_105969=T pbc="F F F"
C        0.08090000       1.51100000      -0.22080000
C       -0.02470000       0.01550000       0.11070000
C       -1.43120000      -0.49040000       0.10900000
C       -2.36780000      -0.86730000      -1.01320000
C       -1.97030000      -1.92490000      -0.01340000
C       -3.21830000      -1.51160000       0.81710000
C       -4.21250000      -2.28850000       1.60870000
C       -2.69710000      -0.12220000       0.93600000
N       -3.60970000      -0.48080000      -0.21410000
H        1.12270000       1.84490000      -0.20270000
H       -0.32830000       1.72230000      -1.21360000
H       -0.47610000       2.11560000       0.50260000
H        0.55660000      -0.56720000      -0.61610000
H        0.43510000      -0.17820000       1.08960000
H       -2.28430000      -0.81270000      -2.09210000
H       -1.42180000      -2.84970000      -0.13050000
H       -3.74760000      -2.74920000       2.48760000
H       -5.01530000      -1.62760000       1.95030000
H       -4.66270000      -3.08370000       1.00390000
H       -2.93240000       0.68050000       1.62680000
