21
Properties=species:S:1:pos:R:3 gdb_92332=T pbc="F F F"
C       -0.08700000       1.57350000      -0.22620000
C        0.07890000       0.06360000      -0.04770000
C        0.87490000      -0.65690000      -1.14780000
O        1.19560000      -1.93550000      -0.61740000
C        1.40490000      -1.80190000       0.78300000
C        2.81740000      -1.30370000       1.19190000
C        2.21780000       0.06120000       1.62970000
O        2.76180000       1.22580000       1.04540000
C        0.77880000      -0.44230000       1.22660000
H        0.87000000       2.09550000      -0.18970000
H       -0.57600000       1.79730000      -1.18090000
H       -0.71540000       1.98880000       0.56810000
H       -0.91980000      -0.39320000      -0.04240000
H        0.30960000      -0.80920000      -2.07180000
H        1.78750000      -0.09060000      -1.41140000
H        1.06400000      -2.72390000       1.25820000
H        3.30670000      -1.87390000       1.98520000
H        3.50550000      -1.23650000       0.34290000
H        2.28210000       0.23040000       2.70770000
H        2.98230000       1.03120000       0.12860000
H        0.09560000      -0.47530000       2.07780000
