17
Properties=species:S:1:pos:R:3 gdb_22486=T pbc="F F F"
O        0.35130000       0.82440000      -0.80520000
C       -0.03190000       0.05710000       0.32250000
C       -1.45090000      -0.46950000       0.19710000
C       -1.70050000      -1.94670000       0.06580000
C       -1.23540000      -2.46490000      -1.32000000
C       -1.35910000      -3.91550000      -1.43290000
N       -1.46350000      -5.06420000      -1.50210000
N       -2.47770000       0.28960000       0.14410000
O       -2.11330000       1.64950000       0.23780000
H       -0.25830000       1.57210000      -0.83390000
H        0.67480000      -0.77470000       0.38890000
H        0.04570000       0.63520000       1.25540000
H       -1.15570000      -2.48630000       0.84890000
H       -2.76520000      -2.15180000       0.19490000
H       -1.83400000      -1.99360000      -2.10650000
H       -0.19370000      -2.18390000      -1.50900000
H       -2.96480000       2.09700000       0.19320000
