13
Properties=species:S:1:pos:R:3 gdb_124272=T pbc="F F F"
C       -1.17970000       0.74180000       0.23810000
C        0.19430000       0.27920000      -0.18030000
O        1.22620000       0.65690000       0.31790000
C        0.22440000      -0.72120000      -1.29860000
N       -0.79050000      -1.22870000      -1.94200000
C       -0.16370000      -2.06210000      -2.82950000
O       -0.82050000      -2.80660000      -3.71330000
N        1.14750000      -2.08100000      -2.75370000
O        1.40330000      -1.17590000      -1.72110000
H       -1.70120000       1.19520000      -0.61090000
H       -1.78600000      -0.11230000       0.55640000
H       -1.08250000       1.46120000       1.05100000
H       -1.76320000      -2.63800000      -3.59350000
