16
Properties=species:S:1:pos:R:3 gdb_16627=T pbc="F F F"
C       -0.39000000       1.49050000       0.03070000
C        0.03670000       0.02410000      -0.08110000
C        0.90370000      -0.37330000      -1.25980000
C        2.31710000       0.18080000      -1.32720000
C        2.05450000      -1.14270000      -0.67480000
O        1.96010000      -1.12660000       0.73810000
C        0.86040000      -0.41990000       1.14010000
O        0.63070000      -0.20050000       2.29260000
H        0.47310000       2.15970000      -0.03350000
H       -1.08410000       1.75440000      -0.77190000
H       -0.88110000       1.66050000       0.99210000
H       -0.86520000      -0.60230000      -0.07650000
H        0.42930000      -0.69240000      -2.17950000
H        2.80030000       0.17650000      -2.29790000
H        2.59670000       1.00900000      -0.68380000
H        2.44070000      -2.07980000      -1.05330000
