16
Properties=species:S:1:pos:R:3 gdb_124876=T pbc="F F F"
C       -0.26650000       1.39820000      -0.57190000
C       -0.02070000      -0.00640000      -0.05670000
C        0.98340000      -0.87250000      -0.75240000
N        1.25800000      -0.34550000       0.58990000
C       -1.17600000      -0.66450000       0.59180000
C       -1.28110000      -1.49160000       1.66990000
N       -2.61100000      -1.80670000       1.79950000
N       -3.29960000      -1.24880000       0.91270000
O       -2.39270000      -0.47890000       0.08440000
H        0.62960000       1.78350000      -1.06730000
H       -1.09020000       1.41210000      -1.29080000
H       -0.52690000       2.07520000       0.24830000
H        0.83110000      -1.94630000      -0.79990000
H        1.49910000      -0.44160000      -1.60670000
H        1.88810000       0.45110000       0.53950000
H       -0.52350000      -1.86070000       2.33690000
