19
Properties=species:S:1:pos:R:3 gdb_124637=T pbc="F F F"
C        0.00300000       1.55370000       0.06690000
C        0.00670000       0.02500000       0.01580000
C        0.57510000      -0.58770000       1.30570000
N       -1.34860000      -0.43510000      -0.29490000
C       -1.57520000      -1.75600000      -0.62960000
N       -2.75140000      -2.34670000      -0.39380000
N       -2.58760000      -3.56280000      -0.92590000
N       -1.41520000      -3.81900000      -1.47020000
C       -0.73910000      -2.68110000      -1.29860000
H        1.01170000       1.93790000       0.24270000
H       -0.37600000       1.97300000      -0.86860000
H       -0.63420000       1.91240000       0.88460000
H        0.64020000      -0.28370000      -0.82520000
H        0.55770000      -1.68040000       1.26230000
H        1.61010000      -0.26930000       1.46830000
H       -0.01570000      -0.27300000       2.17380000
H       -2.05470000      -0.07990000       0.33750000
H       -3.32490000      -4.24660000      -0.90550000
H        0.27420000      -2.58060000      -1.64990000
