18
Properties=species:S:1:pos:R:3 gdb_32455=T pbc="F F F"
C       -0.06650000       1.37610000       0.03370000
O       -0.05050000      -0.03900000       0.02520000
C        0.61650000      -0.60880000       1.05510000
C        1.26270000      -0.03590000       2.10710000
O        1.79440000      -1.04280000       2.89560000
C        1.47470000      -2.21880000       2.30960000
N        1.97660000      -3.36100000       2.92690000
C        0.75230000      -2.03800000       1.16710000
C        0.23170000      -3.06880000       0.21680000
H        0.95280000       1.78240000      -0.01640000
H       -0.62930000       1.69270000      -0.84580000
H       -0.55570000       1.75910000       0.93970000
H        1.45380000       0.96900000       2.43320000
H        2.34310000      -3.15260000       3.84680000
H        1.30000000      -4.11090000       2.98380000
H       -0.83960000      -3.26590000       0.35190000
H        0.36510000      -2.74490000      -0.82030000
H        0.76350000      -4.01780000       0.33960000
