16
Properties=species:S:1:pos:R:3 gdb_66970=T pbc="F F F"
O       -0.17810000       1.34760000       0.07180000
C       -0.00120000      -0.01140000       0.02890000
C       -0.20740000      -0.84350000      -1.25090000
C        0.48670000      -2.18730000      -1.04810000
C        0.02970000      -2.07040000       0.43190000
C       -1.08510000      -1.04610000      -0.02640000
C        0.83440000      -0.85410000       1.00710000
C        2.28970000      -0.84560000       0.91300000
N        3.44170000      -0.82330000       0.81100000
H        0.52770000       1.76850000      -0.43290000
H       -0.47660000      -0.34060000      -2.17090000
H       -0.04640000      -2.99220000      -1.56080000
H        1.56090000      -2.27040000      -1.24160000
H       -0.11910000      -2.94550000       1.05830000
H       -2.15060000      -0.98410000       0.13360000
H        0.52580000      -0.63950000       2.03370000
