19
Properties=species:S:1:pos:R:3 gdb_63298=T pbc="F F F"
C       -0.02160000       1.52940000       0.05880000
C       -0.00860000       0.00280000       0.00220000
C       -1.38040000      -0.59760000       0.30420000
C        0.70420000      -0.59690000      -1.25020000
C        1.75900000      -1.15850000      -0.28040000
O        2.75780000      -1.80700000      -0.37640000
N        1.08530000      -0.60190000       0.81790000
C        1.28970000      -0.57220000       2.18420000
N        2.27710000      -1.13490000       2.75100000
H        0.97070000       1.93790000      -0.15230000
H       -0.72480000       1.92970000      -0.67830000
H       -0.33600000       1.88730000       1.04500000
H       -2.11610000      -0.24810000      -0.42710000
H       -1.34700000      -1.69010000       0.26630000
H       -1.73370000      -0.30050000       1.29750000
H        0.14200000      -1.36310000      -1.78790000
H        1.09750000       0.13310000      -1.96050000
H        0.49680000      -0.00760000       2.69320000
H        2.22960000      -0.98700000       3.75790000
