19
Properties=species:S:1:pos:R:3 gdb_38527=T pbc="F F F"
C       -0.00100000       1.48500000       0.02170000
C        1.32890000       0.77640000       0.03160000
C        1.99670000       0.55380000       1.40060000
C        0.86030000      -0.00930000       2.19680000
C        0.27720000       0.18770000       3.37190000
C       -1.09760000      -0.44430000       3.34210000
O       -1.33370000      -0.76640000       1.96810000
C       -0.08370000      -0.76540000       1.28830000
C        0.02530000      -0.02030000      -0.03230000
H       -0.34860000       1.96200000       0.93260000
H       -0.28020000       2.00340000      -0.88860000
H        1.96700000       0.86400000      -0.84050000
H        2.81590000      -0.16990000       1.29530000
H        2.41820000       1.46590000       1.83490000
H        0.65460000       0.74780000       4.21840000
H       -1.16040000      -1.35180000       3.96730000
H       -1.88260000       0.24200000       3.68730000
H        0.24420000      -1.80830000       1.12660000
H       -0.27510000      -0.51940000      -0.94590000
