17
Properties=species:S:1:pos:R:3 gdb_62245=T pbc="F F F"
O        0.46310000       1.50330000       0.23150000
C        0.03290000       0.19340000      -0.10580000
C        0.57140000      -0.28650000      -1.46300000
C        0.14790000       0.66070000      -2.59550000
N        0.63400000       0.23160000      -3.89670000
C        0.03760000      -0.77670000      -4.58570000
O       -0.92460000      -1.40090000      -4.18950000
C        0.38010000      -0.76620000       0.96130000
N        0.69490000      -1.50370000       1.79330000
H        1.40800000       1.47070000       0.42210000
H       -1.06040000       0.25690000      -0.15570000
H        1.66500000      -0.35810000      -1.41420000
H        0.18560000      -1.28860000      -1.67190000
H       -0.94550000       0.70110000      -2.64070000
H        0.51310000       1.67090000      -2.40070000
H        1.44310000       0.67800000      -4.29610000
H        0.52700000      -0.96510000      -5.56150000
