16
Properties=species:S:1:pos:R:3 gdb_128678=T pbc="F F F"
C       -0.00870000       1.37850000       0.02280000
O        0.02600000      -0.05340000      -0.01510000
C        0.64130000      -0.57370000      -1.07320000
N        1.19820000       0.07180000      -2.04960000
N        1.67630000      -0.95490000      -2.86050000
C        1.41430000      -2.21310000      -2.38650000
O        1.68720000      -3.30390000      -2.84250000
N        0.72180000      -1.93450000      -1.19000000
C        0.21500000      -2.95180000      -0.29590000
H        1.00630000       1.78500000       0.03750000
H       -0.53630000       1.77110000      -0.85100000
H       -0.53890000       1.63610000       0.93910000
H        2.16280000      -0.73780000      -3.71100000
H        0.48030000      -3.91310000      -0.73990000
H        0.66970000      -2.86750000       0.69500000
H       -0.87170000      -2.88190000      -0.19500000
