22
Properties=species:S:1:pos:R:3 gdb_107627=T pbc="F F F"
C       -0.40260000       1.50500000      -0.20400000
C        0.10290000       0.06700000      -0.02790000
C        0.82890000      -0.47040000      -1.24210000
C        0.08290000      -1.05370000      -2.38950000
N        0.81710000      -1.93260000      -1.46520000
C        2.15360000      -2.31970000      -1.96060000
C        2.88420000      -1.03820000      -2.40860000
C        2.21590000       0.07580000      -1.57160000
O        2.10890000       1.32300000      -2.24770000
H        0.41790000       2.18900000      -0.43450000
H       -1.11970000       1.56810000      -1.02920000
H       -0.90240000       1.85440000       0.70470000
H        0.77450000       0.01330000       0.84000000
H       -0.73500000      -0.60350000       0.19120000
H       -0.99820000      -1.14280000      -2.32660000
H        0.46200000      -0.90400000      -3.39660000
H        2.68060000      -2.79760000      -1.12730000
H        2.06100000      -3.06340000      -2.75860000
H        3.96490000      -1.09560000      -2.25200000
H        2.71900000      -0.81930000      -3.46780000
H        2.75820000       0.21250000      -0.62200000
H        2.99530000       1.68470000      -2.34690000
