20
Properties=species:S:1:pos:R:3 gdb_40770=T pbc="F F F"
C        1.36850000       0.13390000      -0.34810000
C        0.96460000      -1.23130000      -0.77690000
N        0.00680000      -0.34640000      -0.11370000
C       -0.31860000      -0.67390000       1.25880000
C       -1.03030000       0.44290000       2.05300000
O       -2.17410000      -0.40510000       2.30540000
C       -1.62470000      -1.43600000       1.48330000
C       -2.45280000      -2.20110000       0.50890000
C       -1.87950000      -2.88130000       1.74700000
H        2.03920000       0.20850000       0.50650000
H        1.46460000       0.93550000      -1.07410000
H        0.76150000      -1.44500000      -1.82190000
H        1.36590000      -2.06920000      -0.20860000
H        0.53480000      -1.11550000       1.79980000
H       -0.55120000       0.76730000       2.98260000
H       -1.29030000       1.31250000       1.43900000
H       -3.51710000      -1.99160000       0.50480000
H       -2.02820000      -2.43000000      -0.46250000
H       -1.06150000      -3.58500000       1.62670000
H       -2.56900000      -3.11950000       2.54990000
