17
Properties=species:S:1:pos:R:3 gdb_102340=T pbc="F F F"
C        0.07440000       1.47460000       0.09300000
N       -0.02960000       0.01340000       0.03050000
C       -1.38450000      -0.53190000       0.00740000
C       -1.28160000      -2.11150000      -0.00560000
N       -0.62260000      -2.68940000       1.13560000
C       -2.10140000      -0.12820000       1.23230000
N       -2.65930000       0.13310000       2.20900000
C       -2.16240000      -0.09330000      -1.17920000
N       -2.69200000       0.21960000      -2.15800000
H        1.13280000       1.74360000       0.07060000
H       -0.43930000       1.99050000      -0.73150000
H       -0.34460000       1.82760000       1.03910000
H        0.45430000      -0.33260000      -0.79290000
H       -2.29160000      -2.51760000      -0.10160000
H       -0.73800000      -2.36700000      -0.92300000
H        0.26450000      -2.22400000       1.30130000
H       -1.18360000      -2.57840000       1.97440000
