22
Properties=species:S:1:pos:R:3 gdb_56172=T pbc="F F F"
C        0.07310000       1.58040000       0.26930000
C       -0.01090000       0.07940000       0.05940000
C       -1.34250000      -0.44670000      -0.45250000
C       -1.71270000       0.05070000      -1.85560000
C       -2.89570000      -0.71810000      -2.44300000
N       -3.66670000      -0.00610000      -3.31860000
O       -3.13540000      -1.87790000      -2.16690000
C        1.23950000      -0.63970000      -0.39470000
C        0.74640000      -0.79940000       1.02550000
H        1.04430000       1.86630000       0.68510000
H       -0.05510000       2.13240000      -0.66900000
H       -0.70120000       1.92510000       0.96550000
H       -1.32710000      -1.54000000      -0.48530000
H       -2.14140000      -0.17390000       0.24990000
H       -1.92180000       1.12620000      -1.85990000
H       -0.86140000      -0.10320000      -2.53300000
H       -3.42240000       0.92270000      -3.61310000
H       -4.39480000      -0.49420000      -3.81430000
H        1.13050000      -1.48520000      -1.06630000
H        2.13910000      -0.05590000      -0.56040000
H        1.31180000      -0.32070000       1.81840000
H        0.30650000      -1.75050000       1.30660000
