17
Properties=species:S:1:pos:R:3 gdb_68553=T pbc="F F F"
C       -0.00690000       1.51320000      -0.06140000
C       -0.01860000       0.01780000       0.04060000
O        0.33970000      -0.70910000      -1.19020000
C       -0.27410000      -1.85810000      -0.53000000
C        0.61020000      -2.02860000       0.70760000
C        0.78500000      -0.75880000       1.09270000
C       -1.31830000      -0.85490000       0.03420000
C       -2.55040000      -0.91160000       0.80230000
O       -2.50590000      -0.48340000      -0.58740000
H        0.97710000       1.86420000      -0.38620000
H       -0.75590000       1.84780000      -0.78330000
H       -0.22910000       1.96640000       0.91000000
H       -0.51400000      -2.69430000      -1.18330000
H        0.93570000      -2.95450000       1.15820000
H        1.29690000      -0.34540000       1.94980000
H       -3.04890000      -1.86420000       0.97240000
H       -2.78830000      -0.12530000       1.51660000
