24
Properties=species:S:1:pos:R:3 gdb_109766=T pbc="F F F"
C        1.40940000       1.56530000      -0.62750000
C        0.44500000       0.44750000      -0.21130000
C        0.92800000      -0.30780000       1.01300000
C        0.44550000      -1.67630000       1.37010000
C       -0.58700000      -2.41920000       0.53540000
C       -0.58000000      -3.91960000       0.83330000
O       -1.88510000      -1.85830000       0.74010000
N        1.84040000      -1.45740000       0.97590000
C        2.35660000      -1.97130000      -0.28320000
H        2.38820000       1.16420000      -0.91020000
H        1.01750000       2.12680000      -1.48120000
H        1.56880000       2.27340000       0.19310000
H       -0.53790000       0.87250000       0.02500000
H        0.27840000      -0.22690000      -1.05550000
H        1.15080000       0.36100000       1.84690000
H        0.34500000      -1.90970000       2.43460000
H       -0.39780000      -2.26950000      -0.53030000
H       -0.76530000      -4.10200000       1.89930000
H       -1.36050000      -4.42470000       0.25790000
H        0.38730000      -4.36810000       0.58470000
H       -2.09470000      -1.94370000       1.67710000
H        1.69180000      -1.88440000      -1.15430000
H        3.28410000      -1.43940000      -0.52020000
H        2.60630000      -3.03000000      -0.15660000
