16
Properties=species:S:1:pos:R:3 gdb_16080=T pbc="F F F"
O        0.64180000       0.32580000      -0.68870000
C       -0.21300000       0.27740000       0.43880000
C       -1.47100000      -0.50160000       0.16890000
O       -2.47930000      -0.48300000       1.19720000
C       -2.75010000      -1.90330000       0.97420000
C       -1.80220000      -1.94270000      -0.21290000
C       -2.14790000      -0.77860000      -1.13270000
O       -3.44960000      -0.35580000      -1.38440000
H        0.22070000       0.88180000      -1.35220000
H        0.36070000      -0.19800000       1.24130000
H       -0.49520000       1.28140000       0.79420000
H       -2.41630000      -2.48760000       1.83690000
H       -3.81120000      -2.09230000       0.77820000
H       -1.16280000      -2.76560000      -0.50310000
H       -1.51680000      -0.72750000      -2.01490000
H       -3.77010000       0.02310000      -0.55400000
