21
Properties=species:S:1:pos:R:3 gdb_63477=T pbc="F F F"
C        0.02090000       1.48640000      -0.06080000
C        0.00940000      -0.03080000       0.01610000
C       -1.19180000      -0.65480000      -0.67270000
C        1.34800000      -0.75670000      -0.06550000
C        0.60120000      -0.67390000       1.24720000
O        1.07780000       0.22160000       2.21410000
C        0.00230000      -1.93270000       1.87640000
C        0.97950000      -2.60010000       2.73370000
C        1.81870000      -3.09490000       3.43930000
H        0.86840000       1.90870000       0.47930000
H        0.07100000       1.81200000      -1.10630000
H       -0.89390000       1.90550000       0.37400000
H       -1.24020000      -0.32040000      -1.71540000
H       -1.15540000      -1.74720000      -0.68700000
H       -2.12880000      -0.35480000      -0.18850000
H        1.38870000      -1.70900000      -0.58570000
H        2.24420000      -0.15180000      -0.15480000
H        1.75190000      -0.24690000       2.72280000
H       -0.87410000      -1.65250000       2.47470000
H       -0.34410000      -2.62840000       1.10680000
H        2.54210000      -3.56270000       4.06030000
