18
Properties=species:S:1:pos:R:3 gdb_26727=T pbc="F F F"
C       -0.03070000       1.54170000       0.06750000
C        0.00990000       0.04550000       0.00530000
C       -0.00840000      -0.75120000      -1.10890000
C       -0.07230000      -0.39490000      -2.55880000
N        0.04600000      -2.08610000      -0.66990000
C        0.04950000      -3.22510000      -1.46130000
O        0.09770000      -4.34900000      -1.02770000
C        0.09800000      -2.10870000       0.72120000
C        0.07730000      -0.82330000       1.15660000
H        0.85760000       1.94310000       0.56920000
H       -0.08000000       1.99620000      -0.92520000
H       -0.90140000       1.89280000       0.63360000
H        0.80200000      -0.74850000      -3.11860000
H       -0.96390000      -0.79900000      -3.05330000
H       -0.10730000       0.69070000      -2.66680000
H        0.00300000      -2.99040000      -2.53730000
H        0.14400000      -3.05550000       1.23090000
H        0.10620000      -0.50350000       2.18790000
