19
Properties=species:S:1:pos:R:3 gdb_95566=T pbc="F F F"
C       -0.09290000       1.42700000       0.06240000
C        0.03470000      -0.09120000      -0.05640000
O        1.08840000      -0.37420000      -0.95820000
C        1.04140000      -1.65690000      -1.54880000
C        1.33890000      -2.80070000      -0.62000000
C        1.58790000      -2.72560000       0.68660000
C        1.57770000      -1.46470000       1.52920000
C        0.26810000      -0.70470000       1.33840000
O       -0.55540000      -0.57650000       2.21110000
H        0.85290000       1.86310000       0.39840000
H       -0.34370000       1.85860000      -0.90940000
H       -0.87240000       1.67430000       0.78550000
H       -0.91360000      -0.50680000      -0.43480000
H        0.05980000      -1.81990000      -2.03130000
H        1.78240000      -1.63880000      -2.35830000
H        1.35210000      -3.77620000      -1.10310000
H        1.78130000      -3.64750000       1.22740000
H        1.66770000      -1.70770000       2.58920000
H        2.40910000      -0.80860000       1.24700000
