14
Properties=species:S:1:pos:R:3 gdb_20444=T pbc="F F F"
C        0.05980000       1.56960000       0.00690000
N        1.24470000       0.71030000      -0.06560000
C       -0.07840000       0.07970000       0.02910000
C       -0.34390000      -0.66110000       1.27570000
C        0.41040000      -0.89960000       2.40260000
N       -0.32470000      -1.63700000       3.28140000
N       -1.49570000      -1.87520000       2.76870000
N       -1.51630000      -1.28630000       1.55330000
H       -0.04480000       2.12230000       0.93550000
H       -0.27040000       2.09520000      -0.88540000
H        1.59330000       0.65520000      -1.01810000
H       -0.49180000      -0.37010000      -0.87240000
H        1.42050000      -0.58980000       2.61030000
H       -2.34980000      -1.35060000       0.99080000
