19
Properties=species:S:1:pos:R:3 gdb_15615=T pbc="F F F"
C       -0.10010000       1.41940000       0.01270000
N        0.02010000      -0.02890000       0.05800000
C        0.45580000      -0.65440000      -0.94410000
O        0.82450000      -0.07910000      -2.13530000
C        1.36670000      -1.06990000      -3.01890000
C        0.81860000      -2.41150000      -2.51520000
C        0.66570000      -2.15960000      -1.00330000
C        1.89200000      -2.57560000      -0.17510000
H        0.36640000       1.84300000       0.90920000
H        0.34850000       1.88360000      -0.87270000
H       -1.16090000       1.69580000       0.05010000
H        1.05640000      -0.81830000      -4.03590000
H        2.46260000      -1.02980000      -2.97090000
H       -0.15540000      -2.61200000      -2.97140000
H        1.48190000      -3.24720000      -2.75030000
H       -0.21800000      -2.65410000      -0.59440000
H        2.81060000      -2.11850000      -0.55950000
H        1.76810000      -2.25740000       0.86300000
H        2.02170000      -3.66230000      -0.19630000
