19
Properties=species:S:1:pos:R:3 gdb_54756=T pbc="F F F"
C       -1.23860000       0.94020000       0.43520000
C       -0.05520000       0.01260000       0.21990000
O        0.82530000      -0.09820000       1.04590000
C       -0.05860000      -0.74600000      -1.08950000
C        1.12120000      -1.63250000      -1.55320000
C        0.79310000      -2.69510000      -0.48350000
C       -0.52170000      -2.25730000      -1.18000000
C       -1.90390000      -2.82390000      -1.09670000
O        0.18840000      -2.32260000      -2.48040000
H       -1.20280000       1.76220000      -0.28950000
H       -2.18370000       0.41220000       0.26460000
H       -1.21330000       1.34760000       1.44650000
H       -0.50230000      -0.16100000      -1.89960000
H        2.08510000      -1.31870000      -1.95090000
H        1.11270000      -3.70640000      -0.73880000
H        0.95040000      -2.43250000       0.56120000
H       -2.30570000      -2.70490000      -0.08560000
H       -2.57190000      -2.32080000      -1.80240000
H       -1.88670000      -3.89150000      -1.33660000
