14
Properties=species:S:1:pos:R:3 gdb_125365=T pbc="F F F"
C       -0.01620000       1.54050000       0.01730000
C       -0.00570000       0.04410000       0.03160000
C       -0.03310000      -0.80440000      -1.06730000
N       -0.01280000      -2.13480000      -0.69170000
C        0.02850000      -2.14410000       0.67650000
C        0.03360000      -0.84570000       1.13860000
O        0.07390000      -0.88020000       2.46660000
N        0.09370000      -2.33070000       2.80190000
N        0.06590000      -2.99390000       1.72650000
H        0.87780000       1.95440000       0.49640000
H       -0.05140000       1.91880000      -1.00790000
H       -0.88320000       1.94260000       0.55260000
H       -0.06650000      -0.54020000      -2.11360000
H       -0.02620000      -2.92530000      -1.31060000
