21
Properties=species:S:1:pos:R:3 gdb_56260=T pbc="F F F"
C       -0.09070000       1.39140000      -0.10310000
C       -0.16660000      -0.12430000      -0.21690000
O        0.41300000      -0.73840000      -1.09440000
N       -0.92330000      -0.74500000       0.73710000
C       -1.11790000      -2.18470000       0.75070000
C       -2.30880000      -2.63090000      -0.10690000
N       -2.46050000      -4.07670000      -0.03470000
C       -3.35010000      -4.58760000       1.00420000
C       -3.75580000      -4.61440000      -0.42820000
H        0.96090000       1.68600000      -0.06460000
H       -0.51990000       1.83470000      -1.00600000
H       -0.60710000       1.79710000       0.77100000
H       -1.42160000      -0.18280000       1.40580000
H       -0.20860000      -2.65010000       0.36530000
H       -1.25720000      -2.51090000       1.78680000
H       -3.22250000      -2.09580000       0.21610000
H       -2.11340000      -2.35230000      -1.14760000
H       -3.02570000      -5.49470000       1.50580000
H       -3.85310000      -3.86540000       1.64680000
H       -4.52760000      -3.91090000      -0.73770000
H       -3.73180000      -5.54150000      -0.99370000
