13
Properties=species:S:1:pos:R:3 gdb_35984=T pbc="F F F"
C       -0.12610000      -1.22960000      -0.00340000
C       -0.05720000      -0.03160000       0.00240000
C        0.01530000       1.43060000       0.00960000
C        1.38230000       1.94400000      -0.00070000
C        2.51310000       2.37870000      -0.00920000
C        3.77460000       2.86410000      -0.01860000
C        4.91080000       3.30340000      -0.02710000
C        6.17290000       3.79060000      -0.03650000
C        7.30120000       4.22660000      -0.04490000
H       -0.18260000      -2.29020000      -0.00850000
H       -0.52830000       1.82970000      -0.85870000
H       -0.51150000       1.82020000       0.89250000
H        8.29200000       4.60860000      -0.05240000
