18
Properties=species:S:1:pos:R:3 gdb_71723=T pbc="F F F"
C        0.00430000       1.51030000       0.11830000
C       -0.01800000       0.01940000       0.00010000
C        0.44970000      -0.84900000      -1.20510000
C        0.95810000      -1.89530000      -0.27710000
C        0.50140000      -1.06410000       0.94430000
C       -0.99290000      -0.89870000       0.69960000
O       -1.83240000      -0.34830000       1.65670000
C       -1.44180000      -1.97960000      -0.27290000
N       -0.24760000      -2.14900000      -1.10200000
H        1.01770000       1.91180000       0.00850000
H       -0.62450000       1.97590000      -0.65020000
H       -0.38320000       1.81640000       1.09420000
H        0.79950000      -0.50150000      -2.16980000
H        1.80010000      -2.57250000      -0.34560000
H        0.97930000      -0.96270000       1.90890000
H       -1.92650000      -0.98090000       2.37720000
H       -1.69360000      -2.92510000       0.22080000
H       -2.28910000      -1.66180000      -0.88880000
