21
Properties=species:S:1:pos:R:3 gdb_112846=T pbc="F F F"
C        0.02250000       1.33250000      -0.15140000
O       -0.01030000      -0.02910000       0.20910000
C       -1.29160000      -0.61180000       0.12750000
C       -1.81820000      -0.85430000      -1.31020000
C       -2.75480000      -2.08560000      -1.21490000
C       -2.85270000      -2.89770000      -2.50750000
C       -2.17590000      -2.86090000      -0.03940000
O       -0.75230000      -3.01330000      -0.11530000
C       -1.28750000      -1.99660000       0.74270000
H        1.04150000       1.68750000       0.02050000
H       -0.23040000       1.49140000      -1.21000000
H       -0.66990000       1.93210000       0.46160000
H       -2.01310000       0.00470000       0.69540000
H       -2.32410000       0.01650000      -1.73350000
H       -0.95780000      -1.09050000      -1.94260000
H       -3.76100000      -1.75490000      -0.92090000
H       -1.87000000      -3.29420000      -2.78150000
H       -3.54070000      -3.74270000      -2.39640000
H       -3.21400000      -2.28010000      -3.33610000
H       -2.71350000      -3.70100000       0.39540000
H       -1.09340000      -2.12650000       1.80380000
