23
Properties=species:S:1:pos:R:3 gdb_95802=T pbc="F F F"
C       -0.05400000       1.57500000       0.00330000
C        0.03610000       0.04800000       0.01380000
C        0.71350000      -0.50670000      -1.25290000
C        0.91580000      -2.01980000      -1.15280000
O        1.59330000      -2.38610000       0.04420000
C        0.85800000      -2.01350000       1.21250000
C        1.55520000      -2.63370000       2.41340000
C        0.78660000      -0.47650000       1.25920000
O        2.09950000       0.06660000       1.35000000
H        0.94650000       2.01490000       0.03630000
H       -0.56250000       1.93520000      -0.89710000
H       -0.60900000       1.94320000       0.87320000
H       -0.98270000      -0.36520000       0.06330000
H        0.11730000      -0.27120000      -2.14220000
H        1.68700000      -0.01860000      -1.38770000
H       -0.05900000      -2.53490000      -1.19400000
H        1.52860000      -2.39650000      -1.97710000
H       -0.16760000      -2.41270000       1.13320000
H        2.54960000      -2.20140000       2.54620000
H        0.97750000      -2.44670000       3.32370000
H        1.65360000      -3.71340000       2.27610000
H        0.26100000      -0.15590000       2.16700000
H        2.64710000      -0.46690000       0.75990000
