20
Properties=species:S:1:pos:R:3 gdb_83458=T pbc="F F F"
C       -0.00220000       1.56810000       0.15100000
C        0.10680000       0.06100000       0.20560000
C        1.29910000      -0.77320000      -0.19590000
C        2.61870000      -0.09450000       0.19360000
C        2.14840000      -0.04320000       1.68340000
C        0.82620000      -0.70940000       1.27210000
N        0.14690000      -1.68090000       2.05470000
C       -1.04070000      -1.46570000       2.69720000
O       -1.70980000      -0.45880000       2.63630000
H        0.93330000       2.06830000       0.41450000
H       -0.28270000       1.90060000      -0.85420000
H       -0.77300000       1.90440000       0.85090000
H       -0.82190000      -0.43940000      -0.05720000
H        1.20170000      -1.58740000      -0.90510000
H        3.48800000      -0.74100000       0.05580000
H        2.82470000       0.86620000      -0.28680000
H        2.75220000      -0.69420000       2.32140000
H        2.07440000       0.93710000       2.16410000
H        0.62460000      -2.54610000       2.26180000
H       -1.34040000      -2.35500000       3.28920000
