17
Properties=species:S:1:pos:R:3 gdb_15175=T pbc="F F F"
C        0.31930000       1.31330000      -0.17330000
O        0.42650000      -0.09120000      -0.14610000
C        0.19860000      -0.61510000       1.14850000
C        0.31640000      -2.06570000       1.13650000
C        0.40840000      -3.26740000       1.14430000
C        0.51970000      -4.69730000       1.16990000
C        1.51870000      -5.37610000       0.28890000
N        1.73210000      -5.34150000       1.73730000
H        1.05590000       1.79410000       0.49040000
H        0.50840000       1.63160000      -1.20080000
H       -0.68470000       1.65410000       0.12650000
H        0.92020000      -0.18730000       1.86720000
H       -0.80530000      -0.32840000       1.50860000
H       -0.39500000      -5.23450000       1.40690000
H        1.28050000      -6.35470000      -0.11790000
H        2.12660000      -4.74400000      -0.35120000
H        2.40800000      -4.61560000       1.96450000
