12
Properties=species:S:1:pos:R:3 gdb_130844=T pbc="F F F"
O        0.02550000      -0.05170000      -0.00240000
C        0.00400000       1.15240000       0.00870000
C        1.21370000       1.99930000       0.00290000
C        1.37580000       3.36660000       0.01360000
C        0.37330000       4.43770000       0.03460000
O        0.66520000       5.61060000       0.04190000
C        2.79230000       3.52220000      -0.00090000
N        3.40900000       2.37020000      -0.01820000
O        2.40990000       1.40170000      -0.01590000
H       -0.94250000       1.72900000       0.02460000
H       -0.68570000       4.10740000       0.04330000
H        3.35900000       4.44150000       0.00110000
