19
Properties=species:S:1:pos:R:3 gdb_115306=T pbc="F F F"
C       -0.05320000       1.57040000       0.07270000
C        0.03700000       0.04180000       0.04310000
O        0.69750000      -0.45660000      -1.11320000
C        2.05430000      -0.77220000      -0.78390000
C        2.02940000      -1.27240000       0.66390000
C        3.29630000      -1.06970000       1.50750000
O        3.14410000      -1.57950000       2.81140000
C        0.84190000      -0.49870000       1.22700000
O        0.60450000      -0.29790000       2.39560000
H        0.94100000       2.02660000       0.03720000
H       -0.62640000       1.92630000      -0.78660000
H       -0.54720000       1.89290000       0.99350000
H       -0.97330000      -0.38590000       0.06610000
H        2.39910000      -1.51840000      -1.50240000
H        2.69790000       0.11750000      -0.87790000
H        1.75940000      -2.33680000       0.68880000
H        4.13840000      -1.60160000       1.05140000
H        3.55500000       0.00320000       1.51250000
H        2.35010000      -1.16240000       3.17440000
