19
Properties=species:S:1:pos:R:3 gdb_105652=T pbc="F F F"
C       -0.01080000       1.42870000       0.06650000
O       -0.13780000       0.02710000      -0.09350000
C        0.59410000      -0.52200000      -1.16650000
C        2.11940000      -0.68140000      -0.88990000
O        1.98560000      -2.09710000      -0.69760000
C        0.59220000      -2.08490000      -1.08460000
C       -0.31090000      -2.75670000      -0.07500000
C        0.22000000       0.05020000      -2.45560000
C       -0.08530000       0.50920000      -3.52430000
H        1.03280000       1.72820000       0.24020000
H       -0.39120000       1.97150000      -0.80770000
H       -0.60340000       1.69430000       0.94430000
H        2.77070000      -0.43140000      -1.73530000
H        2.46740000      -0.17030000       0.01500000
H        0.46830000      -2.53240000      -2.07900000
H       -0.23360000      -2.27360000       0.89980000
H       -1.35290000      -2.71580000      -0.40740000
H       -0.01990000      -3.80740000       0.02120000
H       -0.35670000       0.91290000      -4.46870000
