19
Properties=species:S:1:pos:R:3 gdb_99929=T pbc="F F F"
C       -0.02450000       1.55900000       0.03090000
C        0.00510000       0.01240000       0.02740000
C        0.74760000      -0.50810000       1.28060000
C       -1.44100000      -0.54000000       0.00700000
O       -2.10550000      -0.08330000       1.17340000
C        0.67820000      -0.46600000      -1.18000000
C        1.23140000      -0.86440000      -2.18090000
C        1.85590000      -1.31050000      -3.30490000
C        2.40920000      -1.70690000      -4.30260000
H        0.99110000       1.96190000       0.06130000
H       -0.51660000       1.94140000      -0.86800000
H       -0.57490000       1.91130000       0.90590000
H        0.21160000      -0.19410000       2.17880000
H        0.80620000      -1.60020000       1.27310000
H        1.76580000      -0.11220000       1.31500000
H       -1.94460000      -0.18940000      -0.90590000
H       -1.40320000      -1.63880000      -0.02990000
H       -3.00420000      -0.42390000       1.16220000
H        2.89720000      -2.05420000      -5.17890000
