21
Properties=species:S:1:pos:R:3 gdb_83004=T pbc="F F F"
C       -0.17970000       1.50780000      -0.03620000
C        0.00850000       0.00790000       0.00260000
C        1.32980000      -0.66100000      -0.26950000
O        2.48090000       0.13660000      -0.13440000
C        2.90580000       0.17070000       1.22960000
C        2.85890000       1.56890000       1.89900000
C        1.61030000       1.13180000       2.72390000
C        1.69860000      -0.29690000       2.09300000
C        0.68800000      -0.83080000       1.08840000
H        0.75260000       2.04090000       0.15080000
H       -0.52740000       1.80570000      -1.03160000
H       -0.92850000       1.84540000       0.68790000
H       -0.83470000      -0.53290000      -0.42470000
H        1.43240000      -1.45820000      -1.00030000
H        3.85390000      -0.37160000       1.32810000
H        3.73930000       1.78520000       2.50930000
H        2.71790000       2.39220000       1.19640000
H        1.76210000       1.14330000       3.80560000
H        0.69150000       1.67590000       2.50690000
H        1.92830000      -1.07320000       2.82630000
H        0.19030000      -1.75990000       1.34280000
