18
Properties=species:S:1:pos:R:3 gdb_55527=T pbc="F F F"
C       -0.03860000       1.42300000      -0.15940000
C        0.11750000      -0.06190000       0.05330000
N        1.21390000      -0.55970000       0.44950000
N       -1.07110000      -0.77280000      -0.23430000
C       -1.26320000      -2.13390000      -0.14090000
O       -0.41040000      -2.93530000       0.18130000
N       -2.57700000      -2.48890000      -0.52570000
C       -3.65890000      -2.41860000       0.46870000
C       -3.12090000      -3.72730000       0.00040000
H        0.90430000       1.91260000       0.07940000
H       -0.30530000       1.64570000      -1.19930000
H       -0.82940000       1.83300000       0.47960000
H        1.13870000      -1.57470000       0.52920000
H       -1.85320000      -0.24730000      -0.59340000
H       -3.39450000      -2.09990000       1.47390000
H       -4.60910000      -2.04430000       0.09940000
H       -3.68560000      -4.32050000      -0.71180000
H       -2.48210000      -4.28570000       0.67760000
