23
Properties=species:S:1:pos:R:3 gdb_60005=T pbc="F F F"
C        0.95380000      -0.25590000      -1.05410000
C        0.02740000       0.04690000       0.13200000
C       -0.07900000       1.56010000       0.36280000
C       -1.37230000      -0.56810000      -0.04890000
C       -1.40840000      -2.10270000      -0.04990000
O       -0.79910000      -2.64970000       1.11030000
C       -2.85560000      -2.61890000      -0.22660000
C       -2.95170000      -4.07010000      -0.30820000
C       -3.02520000      -5.26680000      -0.38790000
H        1.93530000       0.20650000      -0.90670000
H        1.11590000      -1.32940000      -1.18690000
H        0.53830000       0.14130000      -1.98860000
H        0.46620000      -0.40980000       1.02760000
H       -0.51960000       2.06220000      -0.50730000
H       -0.70580000       1.79100000       1.23100000
H        0.90740000       2.00320000       0.53460000
H       -2.02690000      -0.21160000       0.76130000
H       -1.81830000      -0.19910000      -0.98330000
H       -0.80940000      -2.48990000      -0.88060000
H       -1.30950000      -2.36430000       1.87680000
H       -3.46490000      -2.25170000       0.61240000
H       -3.28540000      -2.16830000      -1.13050000
H       -3.08780000      -6.32450000      -0.45270000
