19
Properties=species:S:1:pos:R:3 gdb_82860=T pbc="F F F"
C       -0.21160000       1.55250000      -0.04470000
C        0.04820000       0.04970000      -0.01750000
C        0.81700000      -0.50440000      -1.23780000
O        2.02320000       0.26180000      -1.47250000
C        2.71090000      -0.52310000      -0.46870000
C        2.40990000       0.02760000       0.93590000
C        0.96530000      -0.50090000       1.11070000
O        1.11170000      -1.87900000       0.71600000
C        1.63580000      -1.65350000      -0.57130000
H        0.70250000       2.10730000      -0.26760000
H       -0.94630000       1.80390000      -0.81660000
H       -0.60830000       1.90260000       0.91420000
H       -0.90100000      -0.49390000       0.06270000
H        0.23250000      -0.64940000      -2.14820000
H        3.76110000      -0.68830000      -0.71330000
H        3.06020000      -0.42450000       1.69070000
H        2.51010000       1.11380000       0.97640000
H        0.55420000      -0.45230000       2.11900000
H        1.84290000      -2.58060000      -1.09890000
