16
Properties=species:S:1:pos:R:3 gdb_8490=T pbc="F F F"
O       -0.08640000       1.43580000      -0.13010000
C        0.00230000       0.03430000       0.01960000
C        0.28430000      -0.55970000       1.45290000
C       -1.05590000      -1.27600000       1.38120000
O       -1.18270000      -2.55050000       1.89650000
C       -2.16650000      -0.27040000       1.22070000
C       -1.34140000      -0.67350000       0.00560000
O       -1.90870000      -1.27060000      -1.10540000
H        0.80220000       1.80260000      -0.08480000
H        0.67760000      -0.40760000      -0.72490000
H        1.13110000      -1.24940000       1.46180000
H        0.39250000       0.17750000       2.25410000
H       -2.02070000      -2.92040000       1.59790000
H       -3.15980000      -0.71290000       1.20330000
H       -2.11880000       0.73040000       1.64350000
H       -2.45300000      -0.61540000      -1.55720000
