21
Properties=species:S:1:pos:R:3 gdb_86263=T pbc="F F F"
C       -0.62350000       0.88020000      -1.59850000
C        0.34260000      -0.16900000      -1.07570000
C        1.86330000      -0.02320000      -1.34300000
C        2.13770000      -0.60970000       0.06620000
C        3.29630000      -0.08210000       0.89500000
C        0.66650000      -0.21770000       0.46330000
N        0.61590000       1.11580000       1.05730000
C       -0.07540000      -1.21660000       1.24380000
N       -0.66500000      -1.98960000       1.87210000
H       -0.32710000       1.88310000      -1.27950000
H       -0.63740000       0.86650000      -2.69350000
H       -1.64770000       0.69330000      -1.25570000
H        0.01320000      -1.16740000      -1.37930000
H        2.27680000      -0.55900000      -2.19980000
H        2.15840000       1.02800000      -1.40130000
H        2.18700000      -1.70100000       0.00350000
H        3.24740000       1.00570000       0.99380000
H        3.30970000      -0.52350000       1.89820000
H        4.24770000      -0.33330000       0.41440000
H       -0.34940000       1.42080000       1.14430000
H        0.99620000       1.09100000       1.99920000
