20
Properties=species:S:1:pos:R:3 gdb_78953=T pbc="F F F"
C       -0.00020000       1.61430000      -0.01740000
C        0.04130000       0.09540000       0.02100000
C        1.06830000      -0.68380000      -0.81960000
C        1.10750000      -1.83610000       0.22530000
C        2.60760000      -1.52670000       0.45190000
C        2.20240000      -0.27860000       1.13800000
N        2.45920000      -0.26800000      -0.34210000
C        0.70300000      -0.65850000       1.21360000
C        0.05260000      -0.84770000       2.55850000
H        1.00150000       2.03460000       0.11350000
H       -0.38970000       1.97480000      -0.97570000
H       -0.64520000       2.01530000       0.77230000
H       -0.95310000      -0.33680000      -0.15570000
H        1.00740000      -0.79870000      -1.90120000
H        0.59120000      -2.79120000       0.16850000
H        3.51760000      -2.11430000       0.47090000
H        2.77050000       0.40730000       1.75520000
H       -0.03740000       0.10690000       3.09130000
H       -0.95310000      -1.27010000       2.46020000
H        0.64080000      -1.52250000       3.19090000
