21
Properties=species:S:1:pos:R:3 gdb_109221=T pbc="F F F"
C        0.22720000       1.54130000      -0.13700000
C       -0.08980000       0.05630000       0.11420000
C        0.64360000      -0.52650000       1.28610000
C        0.10320000      -1.01610000       2.40590000
C        1.12680000      -1.52090000       3.39020000
C        2.43110000      -1.43590000       2.59020000
C        3.76130000      -1.61070000       3.17740000
O        3.15700000      -2.65960000       2.41530000
C        2.15670000      -0.61610000       1.32660000
H        1.29140000       1.69570000      -0.34120000
H       -0.33350000       1.91690000      -0.99830000
H       -0.03840000       2.15050000       0.73290000
H       -1.16790000      -0.06670000       0.26630000
H        0.16440000      -0.51380000      -0.79090000
H       -0.96250000      -1.04840000       2.60770000
H        1.16150000      -0.90210000       4.29800000
H        0.95200000      -2.55270000       3.71650000
H        4.62620000      -1.13390000       2.71560000
H        3.86130000      -1.80520000       4.24540000
H        2.58270000      -1.11770000       0.44910000
H        2.61960000       0.37870000       1.37860000
