18
Properties=species:S:1:pos:R:3 gdb_87198=T pbc="F F F"
N       -0.40030000       0.95810000      -0.33930000
H        0.21620000       0.15560000      -0.23660000
H        0.37320000       2.52400000      -0.68150000
H       -1.19530000       0.67390000      -0.90460000
C       -0.81940000       1.40690000       0.97970000
C       -1.22870000       2.86920000       1.01400000
C       -0.13550000       3.85740000       0.57800000
O        0.63430000       3.45080000      -0.43990000
O        0.00540000       4.93290000       1.09850000
C       -1.46880000       0.41820000       1.93540000
C       -0.03810000       0.82320000       2.13800000
O        0.91910000      -0.16330000       1.86830000
H       -2.09580000       3.02280000       0.35550000
H       -1.54370000       3.16280000       2.01700000
H       -2.21250000       0.76970000       2.64230000
H       -1.63080000      -0.58790000       1.56230000
H        0.19720000       1.48040000       2.97320000
H        1.77300000       0.27240000       1.76530000
