17
Properties=species:S:1:pos:R:3 gdb_36285=T pbc="F F F"
N        0.10570000      -1.09730000       0.20640000
C        0.04300000       0.05130000       0.31180000
C       -0.04960000       1.51190000       0.41440000
N        1.26640000       2.11400000       0.19590000
C        1.75190000       2.17240000      -1.25700000
C        0.83450000       3.41780000      -1.48630000
C        1.26530000       3.63310000       0.00120000
C        2.77570000       3.83570000      -0.16550000
C        3.10170000       2.85500000      -1.01060000
H       -0.85970000       1.83790000      -0.26000000
H       -0.36790000       1.76490000       1.43300000
H        1.70300000       1.25990000      -1.84930000
H        1.15450000       4.15830000      -2.22160000
H       -0.22360000       3.18350000      -1.62530000
H        0.71080000       4.24220000       0.71500000
H        3.38300000       4.58210000       0.32380000
H        4.05620000       2.55880000      -1.41870000
