17
Properties=species:S:1:pos:R:3 gdb_8897=T pbc="F F F"
C       -0.01870000       1.34160000       0.01270000
O       -0.00300000      -0.09040000      -0.06700000
C        0.59840000      -0.60050000      -1.15660000
O        1.09610000       0.06950000      -2.02700000
C        0.61330000      -2.11980000      -1.11940000
N        0.72910000      -2.63150000      -2.47610000
C        1.74700000      -2.57260000      -0.17590000
O        1.73930000      -3.99190000      -0.19120000
H        0.99930000       1.73930000       0.01910000
H       -0.55600000       1.76620000      -0.83880000
H       -0.52960000       1.58100000       0.94510000
H       -0.32830000      -2.46280000      -0.67450000
H        1.38670000      -2.05000000      -2.98830000
H        1.10340000      -3.57420000      -2.43200000
H        2.70400000      -2.17260000      -0.54630000
H        1.57310000      -2.17900000       0.83630000
H        2.52690000      -4.30630000       0.26150000
