18
Properties=species:S:1:pos:R:3 gdb_124686=T pbc="F F F"
C       -0.73820000       1.86010000      -0.75580000
C       -0.18150000       0.54790000      -0.18820000
C       -1.30620000      -0.29640000       0.42540000
O       -0.71680000      -1.39320000       1.12320000
C        0.58710000      -0.21860000      -1.22710000
C        1.04950000       0.08500000      -2.49010000
N        1.71280000      -0.99250000      -2.99620000
N        1.69000000      -1.95460000      -2.11760000
N        1.01960000      -1.49220000      -1.04850000
H        0.06680000       2.48630000      -1.14860000
H       -1.44540000       1.67100000      -1.56980000
H       -1.25540000       2.42800000       0.02290000
H        0.50050000       0.79040000       0.63930000
H       -1.88820000       0.32960000       1.11690000
H       -1.98160000      -0.64880000      -0.36790000
H       -1.41970000      -1.96960000       1.43710000
H        0.94650000       0.99660000      -3.05540000
H        0.82710000      -2.07540000      -0.24720000
