23
Properties=species:S:1:pos:R:3 gdb_100879=T pbc="F F F"
C        0.04400000       1.61960000       0.03100000
C       -0.01900000       0.08910000       0.03830000
C       -1.44410000      -0.48470000      -0.05680000
C       -2.15360000      -0.12580000      -1.36870000
C       -1.43230000      -2.01850000       0.18980000
N       -2.79050000      -2.54570000       0.29880000
C       -2.86160000      -3.93760000       0.73380000
C       -0.71910000      -2.72140000      -0.89440000
N       -0.13940000      -3.26730000      -1.73190000
H        1.07320000       1.96290000       0.17140000
H       -0.31510000       2.03970000      -0.91280000
H       -0.56130000       2.04700000       0.83870000
H        0.58180000      -0.30770000      -0.78960000
H        0.44930000      -0.28020000       0.96010000
H       -2.02630000      -0.07100000       0.78080000
H       -3.12660000      -0.61830000      -1.42890000
H       -2.30760000       0.95300000      -1.44880000
H       -1.55960000      -0.44870000      -2.23040000
H       -0.83970000      -2.20500000       1.10660000
H       -3.29880000      -1.95590000       0.94940000
H       -3.91030000      -4.22070000       0.85490000
H       -2.42610000      -4.58370000      -0.03420000
H       -2.33410000      -4.13780000       1.68300000
