14
Properties=species:S:1:pos:R:3 gdb_19489=T pbc="F F F"
N       -0.10970000      -1.17690000      -0.04870000
C       -0.06100000      -0.02340000       0.02670000
C       -0.00620000       1.41490000       0.05430000
C        0.51570000       2.15540000       1.25940000
C        1.28060000       1.36290000       2.26130000
C        2.38740000       0.87760000       1.69950000
C        2.49340000       1.32400000       0.25940000
N        1.28170000       2.14350000       0.00060000
H       -0.77860000       1.88600000      -0.54830000
H        0.01710000       3.07920000       1.54130000
H        0.94660000       1.21190000       3.27900000
H        3.11320000       0.22750000       2.17200000
H        3.37450000       1.95240000       0.08150000
H        2.54770000       0.48380000      -0.44300000
