16
Properties=species:S:1:pos:R:3 gdb_38815=T pbc="F F F"
C        0.16820000       1.57780000       0.26790000
C        1.31230000       0.68350000      -0.10080000
O        2.18210000       0.24420000       0.92400000
C        1.50860000      -0.58790000       1.81720000
O        1.34950000       0.02720000       3.11670000
C        0.01180000       0.10330000       3.32990000
N       -0.79940000      -0.32370000       2.45400000
C        0.03530000      -0.78110000       1.33200000
C       -0.05220000       0.08700000       0.08060000
H        0.12940000       1.98490000       1.27200000
H       -0.22630000       2.23300000      -0.50150000
H        1.82170000       0.76550000      -1.05320000
H        2.10880000      -1.48700000       1.97700000
H       -0.26500000       0.54080000       4.28300000
H       -0.20180000      -1.82110000       1.09660000
H       -0.64460000      -0.26550000      -0.75380000
