24
Properties=species:S:1:pos:R:3 gdb_5855=T pbc="F F F"
C        0.02850000       1.37250000      -0.06280000
O       -0.00520000      -0.03080000       0.02560000
C       -1.30870000      -0.61000000      -0.00410000
C       -1.84300000      -0.65550000      -1.44000000
C       -1.21110000      -1.98490000       0.71430000
C       -0.77070000      -1.73530000       2.17020000
C       -2.58910000      -2.67130000       0.72580000
C       -0.17930000      -2.89520000       0.02310000
H        1.07080000       1.67820000       0.06160000
H       -0.32680000       1.74860000      -1.03370000
H       -0.57490000       1.84490000       0.72870000
H       -1.98660000       0.02140000       0.59720000
H       -1.21440000      -1.28520000      -2.07540000
H       -2.86700000      -1.03620000      -1.47300000
H       -1.85820000       0.34820000      -1.87470000
H       -1.50680000      -1.12370000       2.70520000
H       -0.67150000      -2.68300000       2.71000000
H        0.18910000      -1.21580000       2.20280000
H       -2.90970000      -2.97260000      -0.27560000
H       -2.55370000      -3.57490000       1.34360000
H       -3.36060000      -2.01540000       1.14590000
H        0.79570000      -2.40530000      -0.03130000
H       -0.06430000      -3.82990000       0.58250000
H       -0.48520000      -3.15960000      -0.99410000
