15
Properties=species:S:1:pos:R:3 gdb_45848=T pbc="F F F"
O        0.04590000       0.37720000      -1.09070000
C       -0.00620000       1.25110000      -0.26660000
C       -1.26500000       1.52060000       0.55740000
N       -1.56390000       2.90490000       0.87440000
C       -0.79380000       3.56550000       1.63580000
N        0.44710000       3.17830000       2.14710000
C        1.45300000       2.46580000       1.49500000
O        2.48450000       2.19470000       2.06450000
C        1.19690000       2.14810000       0.03210000
H       -2.11000000       1.07450000       0.03020000
H       -1.11400000       0.94910000       1.49090000
H       -1.11030000       4.55620000       1.96570000
H        0.75090000       3.58840000       3.02120000
H        2.09320000       1.69070000      -0.38390000
H        1.00600000       3.09640000      -0.48990000
