21
Properties=species:S:1:pos:R:3 gdb_1297=T pbc="F F F"
C       -0.01080000       1.51070000      -0.04070000
C        0.01720000      -0.00840000      -0.01670000
O        0.67560000      -0.46650000      -1.17790000
C        0.75820000      -1.87290000      -1.26060000
C        1.44890000      -2.26310000      -2.56720000
C        1.67090000      -3.77940000      -2.61770000
C        0.65870000      -1.76450000      -3.78310000
H        1.00620000       1.91250000      -0.06610000
H       -0.54250000       1.87050000      -0.92630000
H       -0.51580000       1.89810000       0.84940000
H        0.53950000      -0.37090000       0.88560000
H       -1.00860000      -0.41370000       0.02470000
H        1.32030000      -2.27260000      -0.39850000
H       -0.25240000      -2.31940000      -1.22050000
H        2.42870000      -1.76670000      -2.56630000
H        0.71580000      -4.31840000      -2.60160000
H        2.19450000      -4.06660000      -3.53490000
H        2.26680000      -4.13010000      -1.76820000
H        1.19420000      -1.97630000      -4.71430000
H       -0.31860000      -2.25970000      -3.84140000
H        0.48770000      -0.68770000      -3.71790000
