22
Properties=species:S:1:pos:R:3 gdb_123204=T pbc="F F F"
C       -0.03610000       1.39980000       0.04890000
O       -0.00660000      -0.00630000       0.01950000
C        0.64260000      -0.51970000      -1.12150000
C        0.61680000      -2.04090000      -1.05050000
C        1.30090000      -2.70150000      -2.25090000
C        1.27390000      -4.23110000      -2.17780000
C        1.96610000      -4.88060000      -3.39260000
C        1.94950000      -6.34090000      -3.33920000
N        1.92740000      -7.49480000      -3.28080000
H        0.97780000       1.83120000       0.05960000
H       -0.57460000       1.81690000      -0.81740000
H       -0.55530000       1.69790000       0.96300000
H        0.14030000      -0.16900000      -2.04090000
H        1.68430000      -0.15450000      -1.16900000
H        1.10330000      -2.35500000      -0.11930000
H       -0.42730000      -2.36930000      -0.98360000
H        0.81390000      -2.37370000      -3.17980000
H        2.34310000      -2.35940000      -2.31620000
H        1.76720000      -4.57180000      -1.26070000
H        0.23870000      -4.58610000      -2.12400000
H        1.47860000      -4.56260000      -4.32190000
H        3.00900000      -4.54830000      -3.45750000
