20
Properties=species:S:1:pos:R:3 gdb_116534=T pbc="F F F"
C       -0.14410000       1.87110000      -0.40250000
C        0.61300000       0.60700000       0.00060000
N        1.12160000      -0.07430000      -1.17510000
C        2.00250000      -0.98350000      -1.04470000
N        2.49800000      -1.50710000       0.14550000
N        2.53940000      -1.56960000      -2.21010000
C        2.33800000      -0.87160000      -3.47940000
C        3.07270000      -2.84310000      -2.23130000
O        3.51130000      -3.38750000      -3.21990000
H        0.51750000       2.55980000      -0.93610000
H       -0.97370000       1.61950000      -1.06910000
H       -0.54510000       2.38510000       0.47670000
H        1.42520000       0.88260000       0.69910000
H       -0.06490000      -0.05490000       0.56330000
H        2.19410000      -1.00990000       0.96870000
H        3.48580000      -1.71520000       0.16370000
H        2.67200000       0.16300000      -3.38730000
H        2.91850000      -1.40100000      -4.23300000
H        1.28010000      -0.86520000      -3.75180000
H        3.04960000      -3.32870000      -1.24330000
