19
Properties=species:S:1:pos:R:3 gdb_100593=T pbc="F F F"
C       -0.31990000       1.74420000      -0.60110000
C       -0.13820000       0.22750000      -0.67940000
C       -0.92680000      -0.52760000       0.39320000
O       -2.33710000      -0.35090000       0.28210000
C       -0.52320000      -2.01460000       0.42790000
O        0.63590000      -2.37200000       0.35940000
N       -1.58450000      -2.87700000       0.56850000
C       -1.45750000      -4.25340000       0.65200000
N       -2.48690000      -4.98470000       0.78900000
H        0.22270000       2.24410000      -1.40840000
H       -1.37490000       2.02440000      -0.67640000
H        0.05800000       2.13570000       0.34950000
H       -0.45090000      -0.14430000      -1.66680000
H        0.91310000      -0.05210000      -0.57130000
H       -0.66370000      -0.12500000       1.38060000
H       -2.56430000      -0.36470000      -0.65490000
H       -2.50820000      -2.47060000       0.64120000
H       -0.41570000      -4.57430000       0.58480000
H       -2.21690000      -5.96580000       0.83430000
