23
Properties=species:S:1:pos:R:3 gdb_120327=T pbc="F F F"
C        1.90230000       1.52900000      -0.62580000
O        1.68060000       0.14870000      -0.48360000
C        1.19330000      -0.45070000      -1.67030000
C        0.99840000      -1.93020000      -1.38140000
C       -0.13650000      -2.78980000      -1.89250000
C       -0.93460000      -2.32770000      -3.10410000
C        0.11610000      -1.94970000      -4.17750000
C        1.38050000      -2.77480000      -3.83160000
C        1.28670000      -3.06460000      -2.33970000
H        2.64950000       1.74740000      -1.40620000
H        0.97660000       2.06990000      -0.88210000
H        2.27420000       1.90250000       0.33170000
H        0.24910000       0.03640000      -1.96900000
H        1.91310000      -0.28460000      -2.49020000
H        1.28010000      -2.14280000      -0.35440000
H       -0.63560000      -3.43660000      -1.17830000
H       -1.55420000      -3.16230000      -3.45270000
H       -1.61760000      -1.49860000      -2.88630000
H       -0.24100000      -2.14970000      -5.19130000
H        0.33620000      -0.87960000      -4.13480000
H        1.37510000      -3.72810000      -4.37320000
H        2.30220000      -2.25560000      -4.11800000
H        1.84150000      -3.91480000      -1.95660000
