18
Properties=species:S:1:pos:R:3 gdb_5604=T pbc="F F F"
C        0.08150000       1.52810000       0.11880000
C       -0.03880000       0.00430000      -0.06240000
C        0.66900000      -0.51720000      -1.27360000
N        0.07900000      -0.80720000      -2.41700000
C        1.08100000      -1.21490000      -3.26350000
C        2.29010000      -1.17390000      -2.62690000
N        2.02420000      -0.72830000      -1.34730000
C        3.02010000      -0.49060000      -0.32170000
H        1.12130000       1.83920000       0.26440000
H       -0.30260000       2.04850000      -0.76300000
H       -0.49100000       1.86050000       0.99040000
H        0.31690000      -0.50440000       0.84260000
H       -1.09070000      -0.26740000      -0.18260000
H        0.87330000      -1.52320000      -4.27710000
H        3.29240000      -1.41840000      -2.93910000
H        3.45350000       0.51280000      -0.40120000
H        2.57130000      -0.59760000       0.66740000
H        3.82340000      -1.22550000      -0.41370000
