23
Properties=species:S:1:pos:R:3 gdb_89312=T pbc="F F F"
C       -0.10730000       1.53230000       0.06620000
C        0.06370000       0.01530000       0.04130000
C        1.00560000      -0.54830000      -1.07190000
C        2.00470000      -1.35250000      -0.20440000
C        3.10680000      -2.10470000      -0.91300000
C        2.30020000      -0.33090000       0.93630000
C        0.79560000      -0.57980000       1.26210000
O        0.19610000      -0.23400000       2.47150000
C        1.03880000      -2.04890000       0.80420000
H        0.85590000       2.05110000       0.11710000
H       -0.62060000       1.87980000      -0.83670000
H       -0.69840000       1.83850000       0.93420000
H       -0.93000000      -0.44280000      -0.02450000
H        0.48180000      -1.18360000      -1.79340000
H        1.50670000       0.24930000      -1.63170000
H        3.74000000      -1.42320000      -1.49330000
H        3.75080000      -2.63560000      -0.20370000
H        2.69540000      -2.84490000      -1.60940000
H        2.96260000      -0.74790000       1.70180000
H        2.62820000       0.67620000       0.66560000
H        0.70920000      -0.62030000       3.18810000
H        0.18980000      -2.61560000       0.40910000
H        1.57650000      -2.64000000       1.55230000
