16
Properties=species:S:1:pos:R:3 gdb_44587=T pbc="F F F"
N       -0.21630000       1.23180000       0.30700000
C       -0.17100000       0.04580000      -0.10270000
O        0.95930000      -0.78360000      -0.05750000
C        0.73330000      -1.93950000      -0.88260000
C       -0.36200000      -3.05760000      -0.75290000
C       -1.49740000      -3.09570000       0.27200000
C       -1.82380000      -1.61730000       0.39280000
C       -1.21450000      -0.90660000      -0.57440000
C       -0.55120000      -1.81920000      -1.59360000
H        0.69130000       1.51970000       0.67690000
H        1.66020000      -2.24970000      -1.35030000
H       -0.04630000      -3.99000000      -1.21460000
H       -2.31710000      -3.74320000      -0.07110000
H       -1.19450000      -3.47030000       1.25790000
H       -2.16830000      -1.18030000       1.32410000
H       -0.71800000      -1.73780000      -2.66150000
