23
Properties=species:S:1:pos:R:3 gdb_110058=T pbc="F F F"
C       -0.02350000       1.58700000       0.08880000
C        0.02210000       0.05820000       0.17600000
C       -1.33410000      -0.61580000      -0.04610000
C       -1.99930000      -0.40000000      -1.41680000
O       -1.02030000      -0.73270000      -2.41750000
C       -3.16940000      -1.40160000      -1.40900000
C       -2.70720000      -2.58020000      -0.50500000
C       -1.33220000      -2.16050000       0.07920000
O       -0.24510000      -2.75920000      -0.61050000
H        0.95520000       2.02060000       0.31720000
H       -0.30400000       1.92240000      -0.91500000
H       -0.74590000       2.01010000       0.79670000
H        0.74140000      -0.33400000      -0.54710000
H        0.39280000      -0.24100000       1.16440000
H       -2.04730000      -0.23190000       0.69860000
H       -2.33790000       0.63240000      -1.57040000
H       -1.45710000      -0.73380000      -3.27490000
H       -4.05850000      -0.91500000      -0.99440000
H       -3.43130000      -1.71470000      -2.42560000
H       -3.43300000      -2.76080000       0.29340000
H       -2.59060000      -3.51760000      -1.05320000
H       -1.22240000      -2.47800000       1.12060000
H       -0.24350000      -2.36930000      -1.49600000
