17
Properties=species:S:1:pos:R:3 gdb_98883=T pbc="F F F"
O       -0.01260000       1.41830000       0.01030000
C       -0.00400000       0.01640000       0.00300000
C       -1.45750000      -0.46830000       0.01150000
O       -2.40890000       0.27860000       0.02250000
N       -1.62440000      -1.83880000       0.00560000
C       -2.95610000      -2.46610000       0.01290000
C       -2.58370000      -3.97530000       0.00320000
N       -1.10920000      -4.05450000      -0.00810000
C       -0.67510000      -2.85980000      -0.00600000
H        0.90100000       1.71850000       0.00290000
H        0.49590000      -0.39650000      -0.88940000
H        0.50920000      -0.40550000       0.88360000
H       -3.51170000      -2.15560000       0.90120000
H       -3.52520000      -2.14760000      -0.86380000
H       -2.96480000      -4.50230000       0.88350000
H       -2.97790000      -4.49420000      -0.87610000
H        0.37990000      -2.61030000      -0.01280000
