17
Properties=species:S:1:pos:R:3 gdb_33021=T pbc="F F F"
C        0.00300000       1.41220000       0.03900000
O       -0.00690000       0.00460000      -0.00960000
C        0.64980000      -0.58540000       1.08380000
C        0.60390000      -2.08820000       0.96340000
N        1.19200000      -2.77270000       1.94890000
C        1.15820000      -4.10120000       1.85330000
C        0.54340000      -4.74860000       0.78440000
N       -0.04530000      -4.07140000      -0.20220000
C       -0.01230000      -2.74040000      -0.10800000
H        1.02890000       1.81200000       0.02910000
H       -0.52680000       1.77210000      -0.84570000
H       -0.50520000       1.79140000       0.93920000
H        1.70330000      -0.26160000       1.13860000
H        0.18310000      -0.28720000       2.03820000
H        1.63430000      -4.66660000       2.65060000
H        0.52560000      -5.83360000       0.72300000
H       -0.48430000      -2.16800000      -0.89800000
