18
Properties=species:S:1:pos:R:3 gdb_18129=T pbc="F F F"
C        0.04590000       1.50880000       0.09950000
C        1.50000000       1.97880000      -0.08490000
C        2.13680000       0.90380000      -0.99080000
O        3.45570000       0.51050000      -0.62430000
C        3.30810000      -0.63520000       0.18070000
O        2.21820000      -1.36160000      -0.33590000
C        1.28130000      -0.39030000      -0.79150000
C        0.17880000      -0.01980000       0.22290000
H       -0.44760000       1.96760000       0.96050000
H       -0.54870000       1.76540000      -0.78620000
H        1.58610000       2.98560000      -0.50050000
H        2.02300000       1.97750000       0.87840000
H        2.17720000       1.22620000      -2.03430000
H        4.21370000      -1.24440000       0.11250000
H        3.12530000      -0.35210000       1.23460000
H        0.86030000      -0.76600000      -1.72750000
H        0.52430000      -0.28960000       1.22750000
H       -0.75590000      -0.55710000       0.04510000
