18
Properties=species:S:1:pos:R:3 gdb_115786=T pbc="F F F"
O        0.01270000       1.27070000      -0.15970000
C        0.07980000      -0.14080000      -0.10400000
C       -1.29110000      -0.69810000       0.25110000
O       -2.27320000      -0.27070000      -0.73440000
C       -2.43520000      -1.61820000      -1.23130000
C       -1.57780000      -2.18160000      -0.08660000
O       -0.47790000      -2.96130000      -0.50710000
C       -0.11920000      -4.02470000       0.24690000
N        0.90590000      -4.69040000      -0.05650000
H       -0.71380000       1.47630000      -0.76140000
H        0.42610000      -0.57360000      -1.05310000
H        0.81110000      -0.40340000       0.66750000
H       -1.58720000      -0.36710000       1.25330000
H       -3.48660000      -1.92110000      -1.26200000
H       -1.97830000      -1.76370000      -2.21710000
H       -2.14800000      -2.70710000       0.68560000
H       -0.80320000      -4.21230000       1.08650000
H        1.02730000      -5.46280000       0.59480000
