20
Properties=species:S:1:pos:R:3 gdb_96898=T pbc="F F F"
C       -0.13010000       1.39250000       0.08480000
N       -0.05640000      -0.06130000       0.09490000
C       -1.11850000      -0.72900000       0.05110000
O       -2.41820000      -0.24830000      -0.00870000
C       -3.20040000      -1.49040000      -0.03750000
C       -4.66740000      -1.18180000      -0.10390000
C       -2.49930000      -2.32340000       1.06800000
C       -1.31140000      -2.22350000       0.04960000
C       -2.40470000      -2.33350000      -1.06880000
H        0.43810000       1.77280000      -0.77180000
H       -1.14880000       1.79390000       0.03750000
H        0.35960000       1.78100000       0.98510000
H       -4.89960000      -0.60540000      -1.00440000
H       -5.24770000      -2.10860000      -0.12500000
H       -4.97790000      -0.59670000       0.76690000
H       -2.38160000      -1.85690000       2.04860000
H       -2.89410000      -3.33730000       1.15680000
H       -0.41920000      -2.84070000       0.09200000
H       -2.79050000      -3.34830000      -1.18270000
H       -2.20060000      -1.87610000      -2.03950000
