15
Properties=species:S:1:pos:R:3 gdb_19244=T pbc="F F F"
O       -0.18260000       1.44430000       0.13150000
C       -0.03930000       0.05600000      -0.00670000
C       -1.35460000      -0.70290000       0.00080000
C       -2.17340000      -0.33940000      -1.16960000
N       -1.10180000      -1.33280000      -1.36690000
C        0.19480000      -0.54720000      -1.44290000
C        0.35450000       0.38410000      -2.53880000
C        0.50420000       1.19370000      -3.41640000
H        0.58810000       1.86740000      -0.26350000
H        0.69000000      -0.34990000       0.70610000
H       -1.73300000      -1.28820000       0.83120000
H       -3.16100000      -0.78350000      -1.23870000
H       -2.07560000       0.64660000      -1.61320000
H        1.01640000      -1.26850000      -1.43710000
H        0.63220000       1.88840000      -4.20980000
