25
Properties=species:S:1:pos:R:3 gdb_100068=T pbc="F F F"
C        0.26180000       1.50460000       0.00750000
C       -0.02420000      -0.00110000       0.00230000
C       -1.51460000      -0.42460000       0.01420000
C       -2.22000000       0.08200000       1.28370000
C       -2.24410000       0.09550000      -1.23600000
C       -1.52750000      -1.98470000       0.00600000
C       -2.85210000      -2.59730000       0.01540000
C       -3.94660000      -3.10120000       0.02310000
C       -5.26310000      -3.72470000       0.03240000
H        1.34160000       1.68420000      -0.00180000
H       -0.15910000       2.00450000      -0.87000000
H       -0.14240000       1.99510000       0.89810000
H        0.45210000      -0.44680000      -0.88160000
H        0.46890000      -0.45610000       0.87210000
H       -2.27320000       1.17450000       1.30430000
H       -3.24210000      -0.30380000       1.33580000
H       -1.69160000      -0.24570000       2.18670000
H       -1.73310000      -0.22260000      -2.15240000
H       -3.26700000      -0.28990000      -1.27270000
H       -2.29750000       1.18810000      -1.24390000
H       -0.97600000      -2.33250000      -0.87810000
H       -0.95920000      -2.34190000       0.87570000
H       -5.18460000      -4.81770000       0.02450000
H       -5.83430000      -3.44240000       0.92390000
H       -5.85210000      -3.43100000      -0.84380000
