19
Properties=species:S:1:pos:R:3 gdb_80958=T pbc="F F F"
C        0.53320000       1.22780000       0.32880000
C        0.20080000      -0.22310000       0.11330000
C        0.59990000      -1.12910000      -1.09770000
C       -0.23290000      -2.06190000      -0.16660000
C        0.54400000      -1.44200000       1.03910000
O        1.87510000      -1.77820000       1.30690000
C       -1.23540000      -0.88230000      -0.03970000
C       -2.24040000      -0.80270000       1.07350000
O       -2.36710000      -1.59420000       1.97590000
H        1.61690000       1.35450000       0.42730000
H        0.19510000       1.84880000      -0.50760000
H        0.07170000       1.60930000       1.24570000
H        0.15470000      -0.87470000      -2.06350000
H        1.66260000      -1.35240000      -1.23190000
H       -0.48930000      -3.10800000      -0.32960000
H        0.03230000      -1.47680000       1.99880000
H        2.36520000      -1.85580000       0.48260000
H       -1.72270000      -0.58160000      -0.97500000
H       -2.91640000       0.08210000       1.00110000
