21
Properties=species:S:1:pos:R:3 gdb_41151=T pbc="F F F"
C       -0.05210000       1.52370000      -0.08680000
C        1.51190000       1.57530000       0.03460000
C        1.43430000       0.21520000       0.75870000
C        2.21910000      -1.10970000       0.81530000
C        1.25010000      -1.43090000       2.00220000
C        1.23220000       0.09380000       2.29040000
C       -0.16250000      -1.82560000       1.50490000
O       -0.84490000      -0.72820000       0.88730000
C        0.06440000      -0.00520000       0.09220000
H       -0.53560000       1.98720000       0.77620000
H       -0.51270000       1.89700000      -1.00310000
H        1.99850000       1.50830000      -0.94310000
H        1.94700000       2.41080000       0.58750000
H        2.18310000      -1.74980000      -0.07300000
H        3.25380000      -1.01330000       1.15910000
H        1.59340000      -2.12400000       2.77330000
H        2.12090000       0.41810000       2.83890000
H        0.33320000       0.52310000       2.73780000
H       -0.09500000      -2.67630000       0.80670000
H       -0.79230000      -2.12880000       2.34720000
H        0.19100000      -0.49310000      -0.88940000
