18
Properties=species:S:1:pos:R:3 gdb_117476=T pbc="F F F"
C        0.87690000       0.32350000       0.37180000
O        1.09060000       0.15270000      -1.01960000
C       -0.02040000      -0.40250000      -1.69230000
C       -0.08200000      -1.93510000      -1.65350000
O       -1.10050000      -2.54190000      -1.92580000
N        1.10260000      -2.52810000      -1.33030000
C        1.25940000      -3.96280000      -1.27660000
C        2.12860000      -4.49730000      -2.40650000
O        2.87140000      -5.43570000      -2.29820000
H        0.03340000       1.00170000       0.56230000
H        0.67890000      -0.63210000       0.87790000
H        1.78760000       0.76340000       0.78390000
H       -0.97410000      -0.02020000      -1.30740000
H        0.05760000      -0.10300000      -2.74350000
H        1.88070000      -1.91460000      -1.14000000
H        1.66890000      -4.30140000      -0.31970000
H        0.25380000      -4.38680000      -1.39690000
H        2.01320000      -3.93990000      -3.36420000
