19
Properties=species:S:1:pos:R:3 gdb_125620=T pbc="F F F"
C       -0.02480000       1.45240000      -0.09260000
C        0.02570000      -0.03660000       0.04120000
N        0.06920000      -0.81480000      -1.03900000
N        0.12020000      -2.06830000      -0.54980000
C        0.08210000      -2.11490000       0.80400000
C        0.14980000      -3.42010000       1.52730000
O       -0.37520000      -4.42480000       0.66520000
C        0.02720000      -0.80320000       1.23920000
C       -0.01280000      -0.29560000       2.64800000
H        0.85640000       1.92990000       0.35180000
H       -0.06810000       1.72830000      -1.14830000
H       -0.90410000       1.87250000       0.40980000
H        0.07670000      -2.86150000      -1.16650000
H        1.19200000      -3.65350000       1.80060000
H       -0.42000000      -3.35140000       2.46650000
H       -0.16300000      -5.28380000       1.04120000
H        0.96230000       0.07960000       2.98460000
H       -0.72390000       0.53120000       2.75290000
H       -0.31630000      -1.07830000       3.35070000
