17
Properties=species:S:1:pos:R:3 gdb_97619=T pbc="F F F"
C        0.04630000       1.54570000       0.10860000
C       -0.00960000       0.01440000      -0.04440000
C       -1.37100000      -0.51030000      -0.05030000
C       -2.50750000      -0.91130000      -0.07470000
C       -3.86540000      -1.43180000      -0.04660000
C       -3.84090000      -2.97420000       0.04260000
O       -4.56960000      -3.68240000      -0.59180000
C       -4.61970000      -0.88340000       1.18510000
O       -5.75470000      -0.50180000       1.14700000
H        1.08490000       1.88810000       0.10620000
H       -0.48160000       2.03770000      -0.71240000
H       -0.41880000       1.86050000       1.04650000
H        0.49370000      -0.28280000      -0.97310000
H        0.55480000      -0.45880000       0.76900000
H       -4.45130000      -1.16710000      -0.93090000
H       -3.08270000      -3.37400000       0.74810000
H       -4.01490000      -0.87010000       2.11620000
