19
Properties=species:S:1:pos:R:3 gdb_18297=T pbc="F F F"
C       -0.27940000       1.45890000       0.25870000
N        0.01130000       0.04830000       0.03310000
C        0.50090000      -0.43470000      -1.25990000
C        0.85000000       0.50470000      -2.41220000
C        2.29010000       1.01410000      -2.30660000
O        2.56440000       1.51410000      -1.00880000
C        2.59180000       0.48690000      -0.03130000
C        1.38120000      -0.43220000      -0.04530000
H        0.43930000       2.16060000      -0.18130000
H       -1.27680000       1.67830000      -0.13700000
H       -0.31020000       1.63290000       1.33940000
H        0.03670000      -1.37190000      -1.56060000
H        0.72360000      -0.02690000      -3.36120000
H        0.15970000       1.35570000      -2.43650000
H        2.99620000       0.20370000      -2.55380000
H        2.47210000       1.84240000      -2.99750000
H        3.49050000      -0.13950000      -0.16890000
H        2.68940000       0.99570000       0.93420000
H        1.55950000      -1.36610000       0.48850000
