21
Properties=species:S:1:pos:R:3 gdb_72457=T pbc="F F F"
C       -0.01630000       1.50610000       0.06300000
C       -0.01090000      -0.01150000      -0.04250000
C        0.78410000      -0.58180000      -1.22820000
C        1.01280000      -2.00910000      -0.69890000
C        1.46660000      -1.66960000       0.73520000
O        0.68340000      -0.53630000       1.11260000
C       -0.31730000      -2.73290000      -0.67040000
C       -1.43720000      -2.07370000      -0.37220000
C       -1.44090000      -0.59930000      -0.05230000
H        1.00750000       1.88530000       0.12580000
H       -0.50400000       1.95590000      -0.80770000
H       -0.55400000       1.82740000       0.96070000
H        0.23070000      -0.55560000      -2.16950000
H        1.72870000      -0.04180000      -1.35330000
H        1.77110000      -2.56990000      -1.24970000
H        1.28720000      -2.48370000       1.44560000
H        2.53690000      -1.41340000       0.76160000
H       -0.33380000      -3.79970000      -0.87400000
H       -2.39300000      -2.59140000      -0.34710000
H       -1.88280000      -0.42860000       0.93810000
H       -2.07610000      -0.05590000      -0.76730000
