22
Properties=species:S:1:pos:R:3 gdb_118178=T pbc="F F F"
C        0.08080000       1.78810000      -0.16010000
C        0.03490000       0.26780000       0.01920000
C        0.70230000      -0.46160000      -1.15790000
C        0.53640000      -1.97590000      -1.12440000
O        1.18660000      -2.49770000      -2.27660000
N        0.63300000      -0.09550000       1.30270000
C        0.05860000      -0.97490000       2.17400000
C        0.80190000      -1.16640000       3.48840000
O       -0.98270000      -1.56190000       1.93160000
H        1.11540000       2.15020000      -0.20700000
H       -0.41170000       2.08150000      -1.09140000
H       -0.42070000       2.29380000       0.66990000
H       -1.00650000      -0.06010000       0.09230000
H        0.27410000      -0.08920000      -2.09600000
H        1.77360000      -0.22210000      -1.18710000
H        0.97440000      -2.38430000      -0.20220000
H       -0.53350000      -2.23310000      -1.11410000
H        1.08530000      -3.45370000      -2.26630000
H        1.50240000       0.34460000       1.55810000
H        0.92410000      -2.23660000       3.66990000
H        1.78180000      -0.68240000       3.51730000
H        0.18780000      -0.76600000       4.30040000
