12
Properties=species:S:1:pos:R:3 gdb_27722=T pbc="F F F"
N        0.05110000       1.25890000       0.16150000
C       -0.04020000      -0.08680000       0.04300000
N       -1.13750000      -0.79720000      -0.05160000
C       -0.68060000      -2.08880000      -0.08140000
O       -1.51000000      -3.12610000      -0.17430000
C        0.68590000      -2.12810000      -0.00890000
O        1.09900000      -0.78400000       0.07320000
C        1.64290000      -3.14370000      -0.00720000
N        2.43170000      -3.99590000      -0.00760000
H        0.93930000       1.68020000      -0.05810000
H       -0.77070000       1.77880000      -0.09940000
H       -2.40900000      -2.77420000      -0.20210000
