17
Properties=species:S:1:pos:R:3 gdb_6916=T pbc="F F F"
C        0.06240000       1.56170000      -0.18020000
C        0.01130000       0.06190000       0.00940000
O       -1.16220000      -0.52770000      -0.49120000
C        1.27390000      -0.76920000      -0.04370000
C        0.50210000      -0.62230000       1.25400000
C        1.07800000       0.13470000       2.44000000
C        1.97150000      -0.70090000       3.24580000
N        2.67310000      -1.36860000       3.87570000
H        0.97170000       2.00400000       0.23520000
H        0.04560000       1.80690000      -1.24900000
H       -0.80510000       2.03930000       0.28640000
H       -1.15060000      -0.44030000      -1.45120000
H        1.22710000      -1.72910000      -0.54470000
H        2.22520000      -0.25320000      -0.13200000
H       -0.09270000      -1.48630000       1.53180000
H        1.64350000       1.01290000       2.11180000
H        0.27500000       0.50430000       3.08900000
