25
Properties=species:S:1:pos:R:3 gdb_56138=T pbc="F F F"
C        0.04380000       1.54360000       0.01000000
C        0.12340000       0.02530000       0.00090000
O        1.18500000      -0.55470000      -0.01250000
C       -1.20960000      -0.71590000       0.00970000
C       -1.05730000      -2.23770000       0.00010000
C       -2.36590000      -3.06550000       0.00820000
C       -3.21670000      -2.76660000      -1.24070000
C       -1.97450000      -4.55540000      -0.00350000
C       -3.19270000      -2.78000000       1.27610000
H        1.04870000       1.96720000       0.00220000
H       -0.51410000       1.90310000      -0.86200000
H       -0.49630000       1.89330000       0.89710000
H       -1.77120000      -0.36870000       0.88760000
H       -1.78780000      -0.35950000      -0.85370000
H       -0.46530000      -2.51880000      -0.87860000
H       -0.44870000      -2.52800000       0.86440000
H       -2.64530000      -2.94080000      -2.15940000
H       -4.09980000      -3.41420000      -1.27150000
H       -3.57360000      -1.73160000      -1.25810000
H       -1.37130000      -4.81210000       0.87410000
H       -2.86320000      -5.19590000       0.00150000
H       -1.38810000      -4.80260000      -0.89520000
H       -3.54910000      -1.74530000       1.31140000
H       -4.07510000      -3.42800000       1.31690000
H       -2.60390000      -2.96400000       2.18190000
