19
Properties=species:S:1:pos:R:3 gdb_1999=T pbc="F F F"
C       -0.11800000       1.46980000      -0.10140000
C        0.02980000      -0.05120000      -0.03480000
O        0.93720000      -0.52000000      -1.03040000
C        0.57170000      -0.51940000       1.31860000
C        0.55770000      -2.02150000       1.50600000
C        1.67480000      -2.87550000       0.96900000
C        1.52750000      -2.67990000       2.45750000
H        0.84790000       1.95530000       0.07200000
H       -0.48360000       1.78370000      -1.08630000
H       -0.83070000       1.83250000       0.64660000
H       -0.96240000      -0.51010000      -0.18910000
H        0.60220000      -0.24510000      -1.88950000
H        1.59750000      -0.14180000       1.42090000
H       -0.02100000      -0.04340000       2.11050000
H       -0.43610000      -2.46280000       1.46800000
H        1.42740000      -3.84480000       0.55020000
H        2.48660000      -2.36810000       0.46130000
H        2.25020000      -2.04580000       2.96160000
H        1.17810000      -3.51290000       3.05780000
