21
Properties=species:S:1:pos:R:3 gdb_63910=T pbc="F F F"
C        0.10320000       1.57510000      -0.01840000
C       -0.01950000       0.05300000       0.01100000
O       -1.43500000      -0.20750000       0.07120000
C        0.58200000      -0.56420000      -1.27060000
C        0.69320000      -2.08790000      -1.21300000
C        2.03580000      -2.72840000      -0.95120000
C        0.98010000      -2.71090000       0.13550000
C        1.08820000      -1.78920000       1.29440000
C        0.64760000      -0.53050000       1.24540000
H        1.15260000       1.88250000      -0.04500000
H       -0.40220000       1.97730000      -0.90150000
H       -0.36700000       2.00710000       0.86960000
H       -1.54030000      -1.14070000       0.28340000
H       -0.04690000      -0.26310000      -2.11410000
H        1.57140000      -0.12310000      -1.43680000
H        0.02220000      -2.63590000      -1.86630000
H        2.26140000      -3.67870000      -1.42300000
H        2.88900000      -2.06740000      -0.83450000
H        0.52240000      -3.67280000       0.35440000
H        1.52510000      -2.18210000       2.21030000
H        0.71100000       0.11080000       2.12080000
