16
Properties=species:S:1:pos:R:3 gdb_9727=T pbc="F F F"
C       -0.04760000       1.56820000       0.06950000
C       -0.00510000       0.03860000      -0.00690000
C        0.83940000      -0.48170000      -1.21710000
O        2.10590000      -0.75360000      -0.64670000
C        1.79830000      -1.23980000       0.63490000
O        0.74750000      -0.43720000       1.12800000
C       -1.35270000      -0.53480000      -0.00720000
C       -2.46300000      -0.99400000      -0.02900000
H        0.97100000       1.95970000       0.00080000
H       -0.65140000       1.98030000      -0.74380000
H       -0.48230000       1.88160000       1.02130000
H        0.38770000      -1.39000000      -1.63780000
H        0.95940000       0.26680000      -2.00210000
H        1.48650000      -2.29890000       0.58690000
H        2.67300000      -1.12920000       1.28140000
H       -3.44340000      -1.40290000      -0.03840000
