21
Properties=species:S:1:pos:R:3 gdb_65098=T pbc="F F F"
C       -0.05750000       1.51280000       0.03210000
C       -0.00850000      -0.00090000      -0.01870000
C        1.17550000      -0.65600000      -0.64110000
N        0.99040000      -0.69950000       0.81970000
C       -1.33170000      -0.69650000      -0.08160000
C       -2.55500000      -0.13030000      -0.68800000
N       -2.52310000      -0.27680000       0.78090000
C       -2.78610000      -1.73680000       1.03730000
C       -1.54170000      -2.18130000       0.22720000
H        0.94490000       1.92420000       0.18690000
H       -0.44590000       1.93620000      -0.89970000
H       -0.70370000       1.84470000       0.85070000
H        1.07370000      -1.61590000      -1.14040000
H        1.94770000      -0.01290000      -1.05640000
H        1.59760000      -0.01960000       1.27060000
H       -2.54630000       0.90630000      -1.00770000
H       -3.21480000      -0.77310000      -1.26960000
H       -2.71280000      -1.94560000       2.10610000
H       -3.76520000      -2.06890000       0.67500000
H       -1.69810000      -2.83950000      -0.63260000
H       -0.74830000      -2.58370000       0.85610000
