18
Properties=species:S:1:pos:R:3 gdb_105551=T pbc="F F F"
C        0.00610000       1.66240000       0.02930000
C       -0.07800000       0.13490000       0.05350000
C        0.69100000      -0.51560000       1.22770000
C        0.81700000      -2.08310000       1.15140000
C        2.34760000      -1.98420000       0.88790000
C        2.24900000      -0.46220000       1.01860000
O        3.02350000       0.44110000       0.95600000
C        0.24920000      -0.00950000       2.51720000
N       -0.09210000       0.37740000       3.55270000
H        1.04510000       1.99860000      -0.02050000
H       -0.52570000       2.05640000      -0.84140000
H       -0.44570000       2.09480000       0.92670000
H       -1.12220000      -0.19340000       0.11330000
H        0.32860000      -0.28160000      -0.87620000
H        0.55550000      -2.58700000       2.08120000
H        0.23520000      -2.51410000       0.33560000
H        2.99170000      -2.43800000       1.64620000
H        2.69270000      -2.31920000      -0.09440000
