21
Properties=species:S:1:pos:R:3 gdb_82849=T pbc="F F F"
O       -0.00340000       1.47550000      -0.03890000
C        0.00050000       0.06710000       0.05140000
C        0.22700000      -0.62920000       1.41880000
C       -0.52420000       0.11550000       2.55120000
C       -1.99150000      -0.31610000       2.32130000
C       -2.40090000       0.14490000       0.90340000
C       -1.38500000      -0.60030000      -0.00110000
C       -0.82450000      -1.71130000       0.96690000
C       -1.83070000      -1.83640000       2.11030000
H        0.90340000       1.78730000       0.04440000
H        0.66230000      -0.36990000      -0.71070000
H        1.24370000      -0.93070000       1.68010000
H       -0.17340000      -0.21740000       3.53370000
H       -0.38340000       1.19820000       2.48800000
H       -2.68010000      -0.00940000       3.11140000
H       -3.42240000      -0.17830000       0.67640000
H       -2.34970000       1.22780000       0.76840000
H       -1.78080000      -0.87200000      -0.98090000
H       -0.43670000      -2.61950000       0.50820000
H       -1.42380000      -2.35370000       2.98570000
H       -2.76150000      -2.33070000       1.81220000
