19
Properties=species:S:1:pos:R:3 gdb_31038=T pbc="F F F"
C        0.07540000       1.53420000       0.17730000
C       -0.00840000       0.02970000      -0.13550000
C       -1.39960000      -0.52990000      -0.06650000
C       -2.19750000      -0.89720000      -1.12590000
O       -2.00820000      -0.89890000      -2.47410000
N       -3.39880000      -1.34360000      -0.65620000
C       -3.40440000      -1.27540000       0.72790000
N       -4.57760000      -1.66300000       1.41690000
C       -2.18440000      -0.78090000       1.11280000
H        1.10930000       1.89350000       0.13320000
H       -0.52150000       2.11540000      -0.53280000
H       -0.31320000       1.74270000       1.17900000
H        0.41980000      -0.15050000      -1.13290000
H        0.64710000      -0.51460000       0.55710000
H       -1.11440000      -0.58880000      -2.64900000
H       -4.18590000      -1.61370000      -1.22030000
H       -4.52060000      -2.61530000       1.76750000
H       -4.74360000      -1.06010000       2.21410000
H       -1.86370000      -0.62440000       2.13270000
