19
Properties=species:S:1:pos:R:3 gdb_120356=T pbc="F F F"
C       -0.02690000       1.57970000       0.05900000
C       -0.00750000       0.04980000       0.00990000
C        0.71420000      -0.49100000      -1.22740000
C        0.70550000      -2.02370000      -1.31020000
N       -0.64090000      -2.57920000      -1.52670000
C       -0.56440000      -3.28500000      -2.58660000
N        0.68480000      -3.33640000      -3.19590000
C        1.57210000      -2.54700000      -2.46800000
O        2.73190000      -2.34030000      -2.72520000
H        0.98860000       1.99130000       0.06780000
H       -0.54450000       1.99730000      -0.81180000
H       -0.54060000       1.94110000       0.95510000
H        0.48300000      -0.34130000       0.91120000
H       -1.03090000      -0.34020000       0.02290000
H        0.24920000      -0.08810000      -2.13620000
H        1.76190000      -0.16720000      -1.23820000
H        1.10520000      -2.43180000      -0.37170000
H       -1.39600000      -3.82990000      -3.02240000
H        0.92280000      -3.81860000      -4.04760000
