18
Properties=species:S:1:pos:R:3 gdb_112466=T pbc="F F F"
C       -0.35250000       1.21620000       0.26370000
O       -0.22810000      -0.19500000       0.36700000
C        0.93380000      -0.61900000       1.01740000
O        0.91870000      -0.23510000       2.39990000
C        0.32700000      -1.01920000       3.35030000
N        0.18770000      -0.61320000       4.54040000
C       -0.12400000      -2.40870000       2.95280000
C        0.56670000      -2.93370000       1.72790000
C        1.06230000      -2.10090000       0.82250000
H        0.50570000       1.65210000      -0.26860000
H       -1.26250000       1.41040000      -0.30710000
H       -0.43310000       1.68720000       1.24960000
H        1.80580000      -0.07790000       0.62230000
H        0.53350000       0.34470000       4.62670000
H        0.01510000      -3.05910000       3.81910000
H       -1.20800000      -2.37740000       2.77250000
H        0.62250000      -4.00990000       1.59570000
H        1.53480000      -2.43770000      -0.09290000
