17
Properties=species:S:1:pos:R:3 gdb_25777=T pbc="F F F"
C       -0.15970000       1.52230000      -0.01990000
C       -0.04530000       0.02750000       0.01310000
C        0.07870000      -0.81020000      -1.07960000
N        0.11560000      -2.10450000      -0.63880000
C        0.05710000      -2.11980000       0.74120000
C       -0.05020000      -0.80840000       1.16060000
C        0.08290000      -3.34710000       1.54580000
N       -0.14660000      -4.52240000       0.83200000
O        0.32450000      -3.35350000       2.73810000
H        0.61250000       1.99800000       0.59470000
H       -0.05400000       1.90470000      -1.03930000
H       -1.12860000       1.86430000       0.36180000
H        0.14520000      -0.57780000      -2.13150000
H        0.36740000      -2.89920000      -1.20170000
H       -0.14290000      -0.50360000       2.19180000
H       -0.82150000      -4.47990000       0.08200000
H       -0.25350000      -5.32880000       1.43210000
