18
Properties=species:S:1:pos:R:3 gdb_85452=T pbc="F F F"
C       -0.20740000       1.48250000      -0.04790000
C        0.10880000       0.00000000      -0.02410000
O        1.09440000      -0.29530000      -1.03610000
C        1.97540000      -1.23450000      -0.57910000
O        2.86040000      -1.69840000      -1.24160000
N        1.64260000      -1.53580000       0.72690000
C        0.72830000      -0.56310000       1.26040000
C        1.05520000       0.24680000       2.48820000
C       -0.04650000      -0.80060000       2.51530000
H        0.68640000       2.07430000       0.16550000
H       -0.58440000       1.76460000      -1.03390000
H       -0.97820000       1.72420000       0.69090000
H       -0.79050000      -0.58130000      -0.26970000
H        2.35110000      -1.97530000       1.29240000
H        1.98200000       0.02020000       3.00580000
H        0.77220000       1.29280000       2.52250000
H       -1.07640000      -0.45880000       2.55450000
H        0.13530000      -1.72270000       3.05750000
