17
Properties=species:S:1:pos:R:3 gdb_126826=T pbc="F F F"
C        0.21800000       1.38590000      -0.14670000
C       -0.06420000      -0.09550000       0.10780000
N       -1.49380000      -0.40960000       0.05270000
N       -2.13530000      -0.44740000       1.22780000
C       -3.40590000      -0.71350000       1.21430000
N       -4.16600000      -0.97140000       0.09550000
C       -3.53930000      -0.92610000      -1.03140000
C       -2.11840000      -0.61090000      -1.18150000
N       -1.44190000      -0.51080000      -2.26940000
H        1.29420000       1.57170000      -0.08140000
H       -0.12150000       1.67230000      -1.14420000
H       -0.28460000       2.00960000       0.59830000
H        0.42520000      -0.71010000      -0.65110000
H        0.27150000      -0.39830000       1.10090000
H       -3.90650000      -0.74170000       2.17370000
H       -4.09670000      -1.12840000      -1.94630000
H       -2.03900000      -0.70650000      -3.07130000
