21
Properties=species:S:1:pos:R:3 gdb_96102=T pbc="F F F"
O       -0.11710000       1.44060000       0.03970000
C        0.02730000       0.02690000       0.01850000
C        0.79230000      -0.49800000       1.24040000
C        0.83780000      -2.03340000       1.25940000
C       -0.57780000      -2.63230000       1.20430000
C       -1.34600000      -2.07630000       0.02070000
C       -1.48000000      -2.86620000      -1.21400000
O       -2.57260000      -2.73950000      -0.29870000
C       -1.38530000      -0.56130000      -0.03340000
H        0.76270000       1.82910000       0.08000000
H        0.56840000      -0.28460000      -0.89250000
H        1.81030000      -0.08760000       1.24510000
H        0.29240000      -0.12310000       2.14300000
H        1.41770000      -2.39250000       0.39870000
H        1.36020000      -2.38520000       2.15470000
H       -0.54450000      -3.72450000       1.14920000
H       -1.12100000      -2.37470000       2.12360000
H       -1.61190000      -2.36110000      -2.17040000
H       -1.03530000      -3.85930000      -1.27460000
H       -1.94720000      -0.18120000       0.82960000
H       -1.90450000      -0.22060000      -0.93320000
