13
Properties=species:S:1:pos:R:3 gdb_15614=T pbc="F F F"
C       -0.06940000       1.46650000      -0.04340000
N       -0.12220000       0.01720000      -0.10320000
C        0.50410000      -0.60210000      -0.99510000
O        1.28460000      -0.07420000      -1.99010000
C        1.80150000      -1.13770000      -2.77600000
O        1.31760000      -2.35420000      -2.23900000
C        0.52300000      -2.09920000      -1.15500000
O       -0.01410000      -2.94430000      -0.51360000
H        0.54460000       1.93340000      -0.82120000
H       -1.09150000       1.85450000      -0.11170000
H        0.31310000       1.75990000       0.94020000
H        1.45570000      -1.03090000      -3.80980000
H        2.89590000      -1.12780000      -2.73130000
