19
Properties=species:S:1:pos:R:3 gdb_2860=T pbc="F F F"
C        0.54250000       1.40450000       0.20200000
C       -0.28080000       0.15200000      -0.12430000
C        0.20000000      -0.51810000      -1.38960000
O        1.43640000      -1.24310000      -1.32280000
C        0.23890000      -1.96980000      -1.63350000
C       -0.19520000      -3.04050000      -0.66080000
C        0.69520000      -4.28620000      -0.75420000
H        1.59640000       1.14490000       0.33940000
H        0.48180000       2.14080000      -0.60690000
H        0.18570000       1.88390000       1.11830000
H       -0.23130000      -0.54960000       0.71320000
H       -1.33730000       0.42140000      -0.25420000
H        0.12620000       0.11870000      -2.27620000
H        0.19070000      -2.28510000      -2.68010000
H       -0.17500000      -2.64950000       0.36030000
H       -1.23730000      -3.30750000      -0.88080000
H        0.66590000      -4.72000000      -1.75970000
H        1.73520000      -4.03120000      -0.53030000
H        0.37190000      -5.05650000      -0.04790000
