17
Properties=species:S:1:pos:R:3 gdb_28036=T pbc="F F F"
C       -0.00290000       1.51930000       0.00630000
C        0.01330000       0.02040000       0.01420000
C       -0.02120000      -0.80480000      -1.08440000
N       -0.01500000      -2.11490000      -0.65160000
C        0.04970000      -3.27640000      -1.50490000
C        1.42130000      -3.64600000      -1.89900000
N        2.49280000      -3.94110000      -2.21270000
C        0.04270000      -2.13100000       0.72360000
C        0.05430000      -0.83140000       1.16150000
H        0.88540000       1.93430000       0.49600000
H       -0.02920000       1.90920000      -1.01530000
H       -0.87600000       1.91830000       0.53560000
H       -0.05030000      -0.57420000      -2.13820000
H       -0.40710000      -4.12800000      -0.99110000
H       -0.53680000      -3.09750000      -2.41200000
H        0.06900000      -3.06600000       1.26100000
H        0.07500000      -0.51440000       2.19360000
