23
Properties=species:S:1:pos:R:3 gdb_60351=T pbc="F F F"
C        0.06840000       1.48810000      -0.09200000
C        0.02330000      -0.03860000       0.04560000
C        0.62780000      -0.50890000       1.37380000
C       -1.41210000      -0.53920000      -0.11890000
O       -1.40150000      -1.95540000      -0.12340000
C       -2.68640000      -2.56400000      -0.08220000
C       -3.37180000      -2.56700000      -1.45870000
C       -2.52100000      -3.92750000       0.42470000
C       -2.41620000      -5.05510000       0.82470000
H        1.09540000       1.85570000      -0.00550000
H       -0.32570000       1.81950000      -1.05880000
H       -0.52210000       1.97350000       0.69440000
H        0.60590000      -0.47960000      -0.77420000
H        0.09500000      -0.06290000       2.22300000
H        0.56200000      -1.59510000       1.46620000
H        1.67980000      -0.21580000       1.45170000
H       -2.03880000      -0.16770000       0.71150000
H       -1.84040000      -0.14450000      -1.05370000
H       -3.32340000      -2.00890000       0.62770000
H       -4.34280000      -3.06580000      -1.39660000
H       -3.53260000      -1.54500000      -1.81240000
H       -2.74870000      -3.09920000      -2.18150000
H       -2.31460000      -6.04810000       1.18710000
