19
Properties=species:S:1:pos:R:3 gdb_115635=T pbc="F F F"
C       -0.11940000       1.40090000       0.13870000
O        0.45090000       0.12400000      -0.05300000
C        0.72730000      -0.54250000       1.14660000
C       -0.43130000      -1.34430000       1.80010000
O        0.28190000      -2.59190000       1.61170000
C        1.34550000      -1.91410000       0.95040000
C        2.05380000      -2.42160000      -0.26720000
C        2.77790000      -2.29440000       1.06630000
O        3.68030000      -1.25050000       1.28630000
H        0.53540000       2.05010000       0.74010000
H       -0.25280000       1.84720000      -0.84930000
H       -1.10010000       1.34490000       0.63500000
H        1.28180000       0.10710000       1.83670000
H       -0.63360000      -1.15020000       2.85870000
H       -1.36330000      -1.31580000       1.22380000
H        1.81930000      -3.42240000      -0.61460000
H        2.26020000      -1.68650000      -1.03830000
H        2.99170000      -3.22600000       1.59140000
H        4.45570000      -1.40480000       0.73620000
