20
Properties=species:S:1:pos:R:3 gdb_81662=T pbc="F F F"
C       -0.10770000       1.52130000       0.03450000
C        0.02300000       0.00350000      -0.00140000
C        0.84010000      -0.58280000      -1.20020000
C        2.11650000      -0.43060000      -0.32050000
C        1.15240000      -0.61420000       0.88330000
N        0.88270000      -2.03790000       1.05550000
C        0.56130000      -2.83370000      -0.01030000
O        0.33920000      -4.02470000       0.08610000
C        0.50820000      -2.07470000      -1.34860000
H        0.84920000       2.03000000      -0.11850000
H       -0.79090000       1.86570000      -0.74930000
H       -0.51130000       1.85670000       0.99610000
H       -0.95800000      -0.45640000       0.15990000
H        0.79970000      -0.05600000      -2.15730000
H        2.91140000      -1.17230000      -0.43070000
H        2.54180000       0.57290000      -0.36810000
H        1.38940000      -0.16530000       1.84940000
H        0.94240000      -2.47980000       1.95940000
H       -0.49520000      -2.22180000      -1.76360000
H        1.20350000      -2.57600000      -2.03090000
