20
Properties=species:S:1:pos:R:3 gdb_87724=T pbc="F F F"
C       -0.24950000       1.31770000      -0.00350000
N        0.06690000      -0.10000000       0.11310000
C        1.44490000      -0.52860000      -0.15380000
C        0.89930000      -0.54700000       1.22230000
C        1.21550000       0.24990000       2.49290000
C        0.22540000      -0.67670000       3.25320000
O       -1.05830000      -0.10350000       3.31610000
C        0.30210000      -1.69190000       2.05630000
O       -0.93300000      -2.17290000       1.59910000
H        0.61270000       1.97470000       0.18570000
H       -0.61910000       1.51940000      -1.01320000
H       -1.03500000       1.56310000       0.71720000
H        1.55740000      -1.44790000      -0.72350000
H        2.17020000       0.24870000      -0.39350000
H        2.25240000       0.12150000       2.81700000
H        0.95900000       1.31050000       2.50850000
H        0.54950000      -1.04060000       4.23590000
H       -1.64980000      -0.77130000       2.93500000
H        0.99180000      -2.52240000       2.24190000
H       -1.11530000      -1.63580000       0.80490000
