18
Properties=species:S:1:pos:R:3 gdb_71410=T pbc="F F F"
O       -0.01590000       1.31200000       0.10290000
C        0.03470000      -0.06070000      -0.00600000
C       -0.61100000      -0.93200000      -1.08360000
C       -0.39460000      -2.10620000      -0.07970000
C       -0.28570000      -1.03640000       1.08470000
C        1.16800000      -0.88580000       0.64600000
C        1.13420000      -2.24290000      -0.00560000
C        1.89890000      -3.45680000       0.32660000
N        2.06470000      -2.77910000      -0.98830000
H        0.69970000       1.68480000      -0.42420000
H       -1.67060000      -0.68650000      -1.19680000
H       -0.13230000      -1.01280000      -2.06690000
H       -1.04500000      -2.97870000      -0.09110000
H       -0.75290000      -0.94070000       2.05270000
H        1.97060000      -0.39520000       1.18120000
H        2.76960000      -3.40430000       0.97520000
H        1.36900000      -4.40620000       0.35970000
H        1.56330000      -3.29400000      -1.70960000
