21
Properties=species:S:1:pos:R:3 gdb_107020=T pbc="F F F"
C       -0.20830000       1.52880000      -0.09370000
C        0.04750000       0.02090000       0.05210000
C        0.88070000      -0.52180000      -1.06570000
O        0.26810000      -0.66400000      -2.36900000
C        0.91690000      -1.80990000      -1.78020000
C        2.41180000      -1.69110000      -2.09890000
C        2.84370000      -1.75630000      -3.55580000
C        2.36930000      -0.27090000      -1.38680000
O        2.65130000       0.87120000      -2.15040000
H        0.73280000       2.08410000      -0.15010000
H       -0.77330000       1.73500000      -1.00760000
H       -0.78210000       1.91140000       0.75510000
H        0.56180000      -0.18140000       1.00010000
H       -0.90340000      -0.52310000       0.08190000
H        0.30560000      -2.69580000      -1.64530000
H        2.99360000      -2.38830000      -1.48630000
H        2.19260000      -1.14340000      -4.18490000
H        3.86860000      -1.39230000      -3.67460000
H        2.80180000      -2.78420000      -3.93130000
H        3.01040000      -0.23180000      -0.50240000
H        1.96410000       0.91240000      -2.82790000
