20
Properties=species:S:1:pos:R:3 gdb_47911=T pbc="F F F"
N       -0.12520000       1.12100000      -1.00910000
C       -0.03280000       0.11790000      -0.23940000
C       -1.29250000      -0.67780000       0.08000000
O       -1.76280000      -0.49400000       1.39970000
C       -1.27790000      -1.34950000       2.42270000
C        0.05600000      -0.89120000       3.03640000
C        1.33200000      -1.49420000       2.42810000
C        1.38750000      -1.50540000       0.90320000
O        1.15850000      -0.21010000       0.33840000
H        0.79430000       1.55510000      -1.12460000
H       -2.05870000      -0.27390000      -0.58310000
H       -1.17510000      -1.74720000      -0.14970000
H       -2.05530000      -1.31970000       3.19270000
H       -1.22010000      -2.38980000       2.06200000
H        0.08080000       0.20070000       2.95940000
H        0.05000000      -1.12510000       4.10720000
H        2.20020000      -0.94870000       2.81480000
H        1.44860000      -2.53560000       2.75750000
H        2.38640000      -1.80240000       0.56830000
H        0.68420000      -2.23330000       0.49040000
