20
Properties=species:S:1:pos:R:3 gdb_53711=T pbc="F F F"
C       -0.01450000       1.47570000       0.01070000
C       -0.00270000       0.01960000       0.00220000
C        0.01630000      -1.18410000      -0.00490000
C        0.00860000      -2.64260000      -0.01330000
C       -1.41490000      -3.23300000      -0.00160000
C       -1.39620000      -4.75360000      -0.01070000
O       -2.75070000      -5.20770000       0.00110000
C       -2.93210000      -6.54110000      -0.00420000
N       -4.09940000      -7.02170000       0.00480000
H        1.00310000       1.88180000       0.00100000
H       -0.53800000       1.87560000      -0.86470000
H       -0.51710000       1.86550000       0.90280000
H        0.54870000      -3.00810000      -0.89780000
H        0.56730000      -3.01820000       0.85520000
H       -1.95360000      -2.88560000       0.88530000
H       -1.97230000      -2.87530000      -0.87270000
H       -0.88290000      -5.13050000      -0.90710000
H       -0.86390000      -5.14090000       0.87000000
H       -1.99300000      -7.11300000      -0.01650000
H       -4.05510000      -8.03850000      -0.00100000
