19
Properties=species:S:1:pos:R:3 gdb_87916=T pbc="F F F"
C        0.02350000       1.56050000      -0.15760000
C        0.02310000       0.05510000      -0.00070000
C        1.31200000      -0.74780000      -0.10680000
C        0.59010000      -0.61700000       1.21220000
C        1.18340000       0.13760000       2.40560000
N        1.33400000      -0.93840000       3.37400000
C        0.48700000      -2.00230000       3.08980000
O        0.26690000      -2.96320000       3.79140000
N       -0.06350000      -1.73970000       1.83860000
H        0.92470000       2.01000000       0.27170000
H       -0.01000000       1.84220000      -1.21540000
H       -0.84260000       2.01450000       0.33620000
H       -0.85560000      -0.43510000      -0.41490000
H        1.28100000      -1.70640000      -0.61520000
H        2.24260000      -0.20290000      -0.23810000
H        2.14190000       0.60610000       2.16500000
H        0.49400000       0.92070000       2.75630000
H        1.51190000      -0.74460000       4.34620000
H       -0.36330000      -2.53540000       1.29730000
