19
Properties=species:S:1:pos:R:3 gdb_39142=T pbc="F F F"
C        0.02850000       1.51140000      -0.07290000
O        1.43770000       1.56260000       0.23220000
C        1.49100000       0.13930000       0.43660000
C        0.01620000      -0.03260000      -0.01380000
C       -0.98340000      -0.73680000       0.92720000
C       -1.10590000      -2.19140000       0.41070000
C       -0.80220000      -2.06820000      -1.06990000
O       -1.50300000      -0.98970000      -1.70750000
C       -0.13670000      -0.78360000      -1.31950000
H       -0.57680000       2.00210000       0.70130000
H       -0.20300000       1.96240000      -1.04520000
H        2.25360000      -0.33960000      -0.19170000
H        1.68220000      -0.12230000       1.48650000
H       -0.67380000      -0.68310000       1.97410000
H       -1.95290000      -0.23800000       0.84610000
H       -0.35760000      -2.84780000       0.87180000
H       -2.09010000      -2.62640000       0.60830000
H       -0.63970000      -2.94700000      -1.68880000
H        0.56290000      -0.61700000      -2.13580000
