21
Properties=species:S:1:pos:R:3 gdb_80899=T pbc="F F F"
C       -0.11000000       1.58070000       0.12300000
C       -0.05150000       0.05100000      -0.00730000
C       -1.50280000      -0.41610000      -0.18820000
C        1.09090000      -0.58750000      -0.88600000
C        2.12050000      -0.13280000       0.19720000
C        0.92470000      -0.73180000       0.97830000
O        0.86530000      -0.80900000       2.35680000
C        1.02530000      -1.90650000      -0.03550000
O       -0.02520000      -2.84100000      -0.08940000
H        0.84840000       2.07820000       0.26800000
H       -0.57210000       2.01390000      -0.77130000
H       -0.74620000       1.85030000       0.97360000
H       -1.95530000       0.11110000      -1.03680000
H       -1.60450000      -1.48390000      -0.34990000
H       -2.09140000      -0.14260000       0.69660000
H        1.21330000      -0.50820000      -1.96490000
H        3.05290000      -0.70020000       0.24650000
H        2.31230000       0.93010000       0.29480000
H        0.11940000      -1.37340000       2.58950000
H        1.98480000      -2.43750000       0.00680000
H        0.18800000      -3.48890000      -0.76750000
