22
Properties=species:S:1:pos:R:3 gdb_113207=T pbc="F F F"
C        0.09600000       1.38470000      -0.41000000
C        0.11200000      -0.06650000       0.02800000
C        1.43870000      -0.80310000       0.05690000
C        0.70640000      -0.48660000       1.34600000
C        1.26970000       0.46980000       2.36260000
O        2.20890000      -0.24810000       3.15600000
N       -1.13210000      -0.70410000      -0.36780000
C       -1.19940000      -1.31160000      -1.69420000
C       -1.23980000      -2.15090000      -0.46430000
H        1.01430000       1.90750000      -0.13430000
H       -0.00460000       1.44400000      -1.49950000
H       -0.75600000       1.91130000       0.03130000
H        1.50070000      -1.83940000      -0.25560000
H        2.33060000      -0.22720000      -0.17010000
H        0.21030000      -1.33770000       1.80620000
H        1.75070000       1.32530000       1.86510000
H        0.45500000       0.87130000       2.98670000
H        2.51830000       0.33860000       3.85270000
H       -2.10260000      -1.11440000      -2.26480000
H       -0.28220000      -1.35160000      -2.27950000
H       -0.36920000      -2.76900000      -0.25730000
H       -2.17830000      -2.56830000      -0.10950000
