20
Properties=species:S:1:pos:R:3 gdb_60890=T pbc="F F F"
C        0.00420000       1.56230000      -0.00270000
C       -0.00430000       0.02610000       0.01390000
C        0.74570000      -0.50340000       1.22200000
O        1.54050000      -1.40700000       1.20130000
C       -1.42700000      -0.52960000       0.03770000
C       -2.58220000      -0.27160000      -0.96270000
N       -3.23500000      -1.24570000       0.03210000
C       -1.89690000      -2.00180000      -0.03920000
C       -2.54240000      -0.39650000       1.10990000
H        1.02330000       1.95320000      -0.07440000
H       -0.56350000       1.94120000      -0.85730000
H       -0.45030000       1.96950000       0.90710000
H        0.50060000      -0.37150000      -0.87410000
H        0.48410000       0.00820000       2.17950000
H       -3.04950000       0.71690000      -0.97250000
H       -2.48580000      -0.67850000      -1.97330000
H       -1.74840000      -2.53910000      -0.97980000
H       -1.71430000      -2.64930000       0.82240000
H       -2.41430000      -0.92310000       2.05990000
H       -3.00780000       0.58210000       1.25740000
