18
Properties=species:S:1:pos:R:3 gdb_50731=T pbc="F F F"
N        0.96430000      -0.07610000      -0.23940000
C       -0.18890000       0.37990000       0.04330000
N       -1.30420000      -0.45490000       0.04780000
C       -1.10160000      -1.86960000      -0.30350000
C       -2.29370000      -2.72440000       0.11440000
N       -3.57110000      -2.15870000      -0.30840000
C       -3.75620000      -0.84140000       0.28380000
C       -2.55390000       0.10670000       0.30610000
O       -2.69630000       1.28360000       0.57030000
H        1.65500000       0.67030000      -0.18590000
H       -0.44990000       1.40600000       0.30150000
H       -0.93610000      -1.94460000      -1.38650000
H       -0.17500000      -2.19960000       0.17350000
H       -2.17850000      -3.72940000      -0.30290000
H       -2.31870000      -2.82870000       1.20660000
H       -3.58890000      -2.08470000      -1.32140000
H       -4.56900000      -0.30790000      -0.21490000
H       -4.06550000      -0.95730000       1.33230000
