16
Properties=species:S:1:pos:R:3 gdb_81879=T pbc="F F F"
C       -0.20640000       1.59570000      -0.02240000
C        0.09060000       0.10740000       0.01330000
N        0.72560000      -0.53550000      -1.20980000
C        2.05780000      -0.00200000      -1.32950000
C        1.86420000      -1.09180000      -0.30780000
C        2.46220000      -2.44000000      -0.48060000
O        2.76700000      -2.90010000      -1.55270000
C        1.19620000      -0.50620000       0.90100000
O        1.34420000      -0.64890000       2.08060000
H        0.68340000       2.20410000      -0.20110000
H       -0.94000000       1.81880000      -0.80280000
H       -0.62780000       1.90040000       0.94010000
H       -0.83110000      -0.45020000       0.21680000
H        2.57860000      -0.33360000      -2.22350000
H        2.29410000       1.00270000      -0.98950000
H        2.61120000      -2.99940000       0.46580000
