15
Properties=species:S:1:pos:R:3 gdb_27325=T pbc="F F F"
N        0.06030000       1.37260000       0.15670000
C       -0.03170000       0.00360000       0.07080000
C       -1.18530000      -0.72240000       0.06050000
C       -1.15640000      -2.15730000       0.03200000
O       -2.14050000      -2.89570000      -0.01530000
C        0.21070000      -2.74850000       0.04330000
N        0.23540000      -4.12840000       0.09240000
C        1.28440000      -1.93540000       0.03660000
O        1.18060000      -0.56230000       0.04480000
H        0.92410000       1.76280000      -0.18980000
H       -0.76310000       1.88130000      -0.12400000
H       -2.14370000      -0.21870000       0.06370000
H       -0.68070000      -4.49900000      -0.13790000
H        1.00270000      -4.59500000      -0.36540000
H        2.32110000      -2.24100000       0.03030000
