19
Properties=species:S:1:pos:R:3 gdb_64459=T pbc="F F F"
C        0.72460000       1.32790000      -0.08310000
C       -0.07540000       0.00510000      -0.03380000
O       -1.45320000       0.29640000       0.07470000
C        0.15960000      -0.84750000      -1.31050000
C        1.01740000      -2.09170000      -1.04200000
C        2.08590000      -1.78370000      -0.00490000
O        1.47730000      -1.44390000       1.25760000
C        0.34870000      -0.71720000       1.25890000
O       -0.28600000      -0.58430000       2.27640000
H        1.80150000       1.16400000      -0.19090000
H        0.37330000       1.91150000      -0.93850000
H        0.55030000       1.90530000       0.82900000
H       -1.64070000       0.29830000       1.02640000
H       -0.82190000      -1.12890000      -1.69630000
H        0.64010000      -0.22400000      -2.07150000
H        0.39950000      -2.91100000      -0.65610000
H        1.48920000      -2.45040000      -1.96220000
H        2.71420000      -2.64970000       0.21350000
H        2.73840000      -0.96240000      -0.32690000
