18
Properties=species:S:1:pos:R:3 gdb_115239=T pbc="F F F"
O        0.02300000       1.42240000       0.06190000
C        0.05510000       0.01430000       0.00190000
C       -1.35500000      -0.56550000      -0.01860000
C       -1.38920000      -2.08960000      -0.06100000
N       -2.74920000      -2.55050000       0.17920000
C       -3.72520000      -1.84820000       0.82190000
O       -4.83070000      -2.29950000       1.05090000
C       -3.36630000      -0.41180000       1.20180000
O       -1.98090000      -0.11820000       1.17950000
H       -0.56690000       1.64090000       0.79360000
H        0.58500000      -0.25990000      -0.91620000
H        0.60470000      -0.41750000       0.85410000
H       -1.89760000      -0.15820000      -0.88740000
H       -1.05570000      -2.44160000      -1.04400000
H       -0.69810000      -2.49330000       0.69280000
H       -2.98770000      -3.51000000      -0.02710000
H       -3.92390000       0.25610000       0.52560000
H       -3.72380000      -0.23410000       2.21790000
