18
Properties=species:S:1:pos:R:3 gdb_84747=T pbc="F F F"
C       -0.13000000       1.58650000       0.01220000
C       -0.01270000       0.05120000      -0.00140000
C        0.69170000      -0.45070000      -1.24160000
C        2.00990000      -0.65610000      -1.24370000
N        2.79440000      -0.45820000      -0.09360000
C        2.24780000      -0.23280000       1.13790000
O        2.89340000       0.10690000       2.11410000
C        0.74140000      -0.49610000       1.22710000
O        0.25090000       0.01940000       2.43310000
H        0.85640000       2.05900000      -0.04730000
H       -0.71800000       1.93460000      -0.84190000
H       -0.61350000       1.91700000       0.93400000
H       -1.02560000      -0.36550000       0.03620000
H        0.13000000      -0.60660000      -2.15480000
H        2.56400000      -0.98180000      -2.11570000
H        3.79540000      -0.35640000      -0.17140000
H        0.63980000      -1.59770000       1.20320000
H        1.04050000       0.23070000       2.95780000
