21
Properties=species:S:1:pos:R:3 gdb_72644=T pbc="F F F"
C       -0.11340000       1.48670000       0.12310000
C       -0.01990000      -0.02630000       0.01150000
C        1.09560000      -0.52660000      -0.96380000
C        1.99970000      -0.89500000       0.24420000
C        0.77700000      -0.75210000       1.17300000
O        1.09090000      -0.06040000       2.36530000
C       -0.03720000      -1.99870000       1.40350000
C       -1.19040000      -1.99060000       0.73320000
C       -1.37430000      -0.75270000      -0.11550000
H        0.87220000       1.93860000       0.27130000
H       -0.55050000       1.91860000      -0.78470000
H       -0.73990000       1.78500000       0.97120000
H        0.78510000      -1.39930000      -1.54430000
H        1.49360000       0.22340000      -1.65180000
H        2.50480000      -1.86370000       0.22640000
H        2.73370000      -0.11720000       0.47060000
H        0.30680000      -0.06590000       2.92560000
H        0.30270000      -2.78330000       2.07230000
H       -1.93400000      -2.78060000       0.77240000
H       -2.21850000      -0.14690000       0.24480000
H       -1.60570000      -1.00150000      -1.15940000
