15
Properties=species:S:1:pos:R:3 gdb_98732=T pbc="F F F"
O       -0.07560000       1.27710000       0.26710000
C       -0.05910000      -0.07220000      -0.08510000
C       -1.47260000      -0.64180000      -0.08490000
O       -2.42420000       0.03620000       0.23100000
N       -1.59750000      -1.94260000      -0.55940000
C       -0.95880000      -3.13790000      -0.06650000
C       -2.46310000      -2.96670000      -0.01770000
C       -3.09620000      -2.79080000       1.27000000
N       -3.61070000      -2.69640000       2.30020000
H       -1.00300000       1.48240000       0.46510000
H        0.37840000      -0.22150000      -1.08390000
H        0.55390000      -0.66190000       0.61770000
H       -0.52960000      -3.80010000      -0.81270000
H       -0.43150000      -3.08860000       0.88280000
H       -3.07570000      -3.48850000      -0.74750000
