17
Properties=species:S:1:pos:R:3 gdb_78790=T pbc="F F F"
C        0.06040000       1.61190000      -0.02570000
C        0.07820000       0.09090000      -0.00310000
C        0.77830000      -0.71990000      -1.10400000
C        1.24000000      -1.76060000      -0.18410000
N        2.26430000      -0.81770000      -0.80560000
C        2.40130000      -0.22520000       0.51300000
N        3.38920000       0.21050000       1.15640000
C        1.03610000      -0.64420000       0.97430000
O        0.71650000      -0.75460000       2.29770000
H        1.06220000       2.02350000      -0.18080000
H       -0.58710000       1.98230000      -0.82690000
H       -0.32170000       2.00380000       0.92220000
H       -0.93010000      -0.31620000       0.12880000
H        0.52130000      -0.79770000      -2.15230000
H        1.35520000      -2.83420000      -0.21320000
H        4.22530000       0.25000000       0.56940000
H        1.54290000      -0.72670000       2.79880000
