16
Properties=species:S:1:pos:R:3 gdb_30965=T pbc="F F F"
C        0.15910000       1.20970000       0.41610000
N       -0.15500000       0.15630000      -0.56090000
C       -1.23500000      -0.66900000      -0.23850000
C       -1.30450000      -1.96650000       0.12330000
O       -0.30460000      -2.84720000       0.39400000
N       -2.66280000      -2.32250000       0.20110000
C       -3.47310000      -1.21600000      -0.03870000
O       -4.68610000      -1.15030000      -0.01190000
N       -2.56020000      -0.20750000      -0.31710000
H        0.99810000       1.80120000       0.04060000
H       -0.70020000       1.87770000       0.52120000
H        0.41100000       0.82040000       1.41350000
H        0.66140000      -0.41750000      -0.73440000
H       -0.25430000      -3.50660000      -0.31040000
H       -3.02010000      -3.16030000       0.62610000
H       -2.84230000       0.68620000      -0.67940000
