15
Properties=species:S:1:pos:R:3 gdb_15586=T pbc="F F F"
C       -0.08520000       1.57100000      -0.12740000
C        0.09900000       0.07270000      -0.01190000
O        0.97950000      -0.39570000      -1.02530000
C        1.38700000      -1.67120000      -0.62010000
O        1.37300000      -1.69380000       0.81170000
C        0.79850000      -0.47820000       1.25760000
C        1.83710000       0.42830000       1.78650000
N        2.63830000       1.14430000       2.21080000
H        0.87470000       2.08670000      -0.05300000
H       -0.54200000       1.81270000      -1.09000000
H       -0.74360000       1.93590000       0.66630000
H       -0.87150000      -0.44410000      -0.08930000
H        0.69860000      -2.45360000      -0.97770000
H        2.39990000      -1.85310000      -0.99260000
H        0.08400000      -0.69220000       2.05900000
