21
Properties=species:S:1:pos:R:3 gdb_126535=T pbc="F F F"
C        0.02540000       1.61470000      -0.00140000
C        0.02550000       0.08430000      -0.00490000
C       -1.39430000      -0.51490000      -0.02410000
C       -1.42020000      -2.01500000      -0.01200000
C       -1.53000000      -2.86870000      -1.09100000
N       -1.48530000      -4.13000000      -0.59830000
N       -1.35740000      -4.16550000       0.74220000
C       -1.31420000      -2.88560000       1.10950000
C       -1.18150000      -2.51840000       2.55440000
H        1.04430000       2.01420000       0.01380000
H       -0.47530000       2.01370000      -0.89090000
H       -0.49980000       2.00920000       0.87590000
H        0.57910000      -0.28850000      -0.87540000
H        0.56250000      -0.28860000       0.87590000
H       -1.95040000      -0.13000000       0.84110000
H       -1.92340000      -0.14390000      -0.91090000
H       -1.64050000      -2.67380000      -2.14680000
H       -1.55080000      -4.99540000      -1.10520000
H       -0.23410000      -2.00700000       2.76010000
H       -1.98590000      -1.84570000       2.87340000
H       -1.22250000      -3.41950000       3.17000000
