23
Properties=species:S:1:pos:R:3 gdb_59876=T pbc="F F F"
C        0.17490000       1.65900000      -0.13180000
C        0.04500000       0.13350000      -0.02090000
C        0.67960000      -0.56360000      -1.23110000
C        0.65470000      -0.38810000       1.28700000
C       -0.12210000      -0.03790000       2.54880000
O       -1.20550000       0.51230000       2.51770000
C        0.51430000      -0.42920000       3.84180000
C        0.28820000       0.49090000       5.03450000
C       -0.40830000      -0.82400000       4.98580000
H        1.22970000       1.96160000      -0.14730000
H       -0.28500000       2.02170000      -1.05690000
H       -0.31560000       2.15730000       0.70720000
H       -1.02390000      -0.10970000       0.00290000
H        1.75640000      -0.36130000      -1.28570000
H        0.54750000      -1.65010000      -1.18630000
H        0.23110000      -0.21000000      -2.16530000
H        0.73510000      -1.48590000       1.26740000
H        1.68870000      -0.03290000       1.40850000
H        1.47250000      -0.93230000       3.77560000
H        1.11690000       0.62430000       5.72030000
H       -0.30400000       1.37620000       4.83310000
H       -1.46680000      -0.81890000       4.75250000
H       -0.07300000      -1.62210000       5.63810000
