19
Properties=species:S:1:pos:R:3 gdb_70190=T pbc="F F F"
C        0.00570000       1.49950000      -0.03030000
C       -0.05900000      -0.00990000       0.04210000
C       -0.84980000      -0.64730000       1.18600000
C        0.67200000      -0.71920000       1.13640000
N        1.33570000      -1.94490000       0.79940000
C        1.11500000      -2.67560000      -0.33180000
O        1.63740000      -3.75630000      -0.52940000
C        0.11080000      -2.07430000      -1.31050000
N        0.04240000      -0.61680000      -1.26340000
H        0.90740000       1.81870000      -0.56130000
H       -0.86400000       1.89930000      -0.56640000
H        0.00790000       1.94420000       0.96850000
H       -1.31560000       0.00210000       1.91990000
H       -1.38360000      -1.57320000       1.00090000
H        1.23880000      -0.12260000       1.84330000
H        1.89620000      -2.40700000       1.50070000
H        0.41780000      -2.39000000      -2.31020000
H       -0.85270000      -2.57490000      -1.10260000
H       -0.70990000      -0.28700000      -1.85950000
