12
Properties=species:S:1:pos:R:3 gdb_129409=T pbc="F F F"
N       -0.08820000       1.29820000       0.31670000
C        0.09110000      -0.01990000      -0.02830000
N        1.14090000      -0.65490000      -0.33900000
N       -1.12920000      -0.76060000       0.04060000
N       -2.31760000      -0.12710000       0.19030000
N       -3.24710000      -0.96120000       0.21500000
O       -2.71080000      -2.24260000       0.08080000
C       -1.33320000      -2.14670000      -0.03150000
O       -0.59010000      -3.06380000      -0.14810000
H        0.64660000       1.92710000       0.03780000
H       -1.02290000       1.67530000       0.29210000
H        1.95850000      -0.04860000      -0.33750000
