15
Properties=species:S:1:pos:R:3 gdb_71546=T pbc="F F F"
O        0.16370000       1.36340000       0.11640000
C        0.09230000       0.00140000      -0.01620000
C        0.56040000      -0.94610000      -1.11700000
N        0.02110000      -1.92930000      -0.07980000
C        0.53650000      -1.01160000       1.06760000
C       -0.82150000      -1.05440000       1.77440000
C       -1.13970000      -0.96520000       0.27620000
C       -2.40010000      -1.00640000      -0.41160000
N       -3.41070000      -0.99300000      -0.97490000
H       -0.26340000       1.78080000      -0.64120000
H        0.01040000      -0.96710000      -2.06220000
H        1.63720000      -1.04340000      -1.28080000
H        1.54050000      -1.15400000       1.46390000
H       -1.08670000      -1.99680000       2.25740000
H       -1.09050000      -0.18650000       2.37730000
