19
Properties=species:S:1:pos:R:3 gdb_119799=T pbc="F F F"
C       -0.76370000       0.49780000       0.47690000
O        0.23680000       0.21550000       1.43730000
C        1.35770000      -0.45980000       0.89020000
C        1.05970000      -1.90960000       0.62460000
N        1.41910000      -2.55670000      -0.42950000
C        0.95790000      -3.91010000      -0.26970000
C        1.49390000      -4.72740000       0.88830000
C        0.20760000      -3.97140000       1.07730000
N        0.37080000      -2.63390000       1.57900000
H       -1.16120000      -0.41520000       0.01090000
H       -1.57270000       1.01300000       1.00000000
H       -0.37930000       1.15090000      -0.32020000
H        1.70280000       0.00240000      -0.04350000
H        2.15290000      -0.37090000       1.63820000
H        0.64990000      -4.42400000      -1.17350000
H        1.41530000      -5.80440000       0.78760000
H        2.37920000      -4.37480000       1.40780000
H       -0.73470000      -4.47140000       1.26670000
H       -0.30900000      -2.18060000       2.16760000
