25
Properties=species:S:1:pos:R:3 gdb_119973=T pbc="F F F"
C       -2.89000000       0.19530000      -2.61240000
C       -2.13050000      -1.05730000      -2.16840000
C       -0.65280000      -1.04560000      -2.58650000
C        0.09840000      -2.27130000      -2.10050000
C        0.19160000      -3.56600000      -2.88560000
C       -0.41960000      -3.75980000      -4.25750000
C        1.43270000      -2.72680000      -2.66000000
C        2.13440000      -2.01580000      -3.78740000
O        2.93720000      -2.97450000      -4.47130000
H       -2.44320000       1.10140000      -2.18750000
H       -2.87580000       0.30230000      -3.70300000
H       -3.93730000       0.16170000      -2.29610000
H       -2.19370000      -1.15770000      -1.07680000
H       -2.61470000      -1.95070000      -2.58220000
H       -0.59360000      -0.95040000      -3.67620000
H       -0.17420000      -0.14270000      -2.18100000
H        0.00540000      -2.40350000      -1.02380000
H        0.14850000      -4.46740000      -2.27880000
H       -0.42150000      -2.84520000      -4.85540000
H        0.13980000      -4.51270000      -4.82210000
H       -1.45830000      -4.09940000      -4.17810000
H        2.13670000      -3.12240000      -1.93220000
H        1.41550000      -1.54820000      -4.47430000
H        2.75820000      -1.20520000      -3.37670000
H        3.44890000      -2.50950000      -5.14020000
