21
Properties=species:S:1:pos:R:3 gdb_78891=T pbc="F F F"
C       -0.10940000       1.57830000      -0.03910000
C        0.04720000       0.05630000       0.01810000
C        0.81300000      -0.56990000      -1.14110000
C        2.30340000      -0.86510000      -1.00010000
C        1.25340000      -1.95840000      -0.79890000
C        1.48900000      -1.83600000       0.72780000
C        2.74590000      -0.94980000       0.48100000
C        2.20160000       0.13310000       1.42990000
C        0.79040000      -0.50510000       1.24850000
H        0.85400000       2.08640000      -0.13620000
H       -0.72020000       1.86910000      -0.90050000
H       -0.60410000       1.96180000       0.85990000
H       -0.96150000      -0.38260000       0.00900000
H        0.48340000      -0.37270000      -2.15710000
H        2.96970000      -0.71180000      -1.84130000
H        1.04100000      -2.85020000      -1.37440000
H        1.50470000      -2.71240000       1.37170000
H        3.75660000      -1.34100000       0.61160000
H        2.57560000      -0.02040000       2.44710000
H        2.33680000       1.18510000       1.16560000
H        0.15870000      -0.55970000       2.13720000
