19
Properties=species:S:1:pos:R:3 gdb_53823=T pbc="F F F"
C        0.09940000       1.37390000       0.04600000
C       -0.33790000      -0.06280000      -0.06820000
O       -0.91720000      -0.65570000       0.81830000
C       -0.03210000      -0.78330000      -1.37550000
N        0.51650000      -0.11870000      -2.32470000
N       -0.40130000      -2.09760000      -1.33870000
C       -0.38890000      -2.94550000      -2.48250000
C        0.92920000      -3.52290000      -2.95460000
C       -0.08790000      -4.40360000      -2.27590000
H        1.18220000       1.44640000      -0.09070000
H       -0.34490000       1.96490000      -0.75940000
H       -0.19230000       1.76560000       1.02090000
H        0.66340000      -0.70550000      -3.14810000
H       -0.93360000      -2.36010000      -0.52030000
H       -1.11280000      -2.69630000      -3.25850000
H        1.08280000      -3.63460000      -4.02200000
H        1.81390000      -3.25300000      -2.39030000
H        0.12590000      -4.72440000      -1.26250000
H       -0.63630000      -5.12290000      -2.87260000
