16
Properties=species:S:1:pos:R:3 gdb_19755=T pbc="F F F"
C       -0.07400000       1.55470000       0.00940000
C        0.02310000       0.03310000      -0.01420000
C        0.95060000      -0.55430000      -1.07550000
C        2.31030000      -0.61960000      -0.38480000
O        2.15530000      -0.13280000       0.93640000
C        0.82520000      -0.59100000       1.15740000
O        0.86280000      -1.97570000       0.82940000
C        1.44700000      -1.85390000      -0.45590000
H        0.91770000       2.00410000       0.10290000
H       -0.53680000       1.93150000      -0.90800000
H       -0.68520000       1.89630000       0.85190000
H       -0.96770000      -0.42980000      -0.05440000
H        0.82710000      -0.40560000      -2.13900000
H        3.28290000      -0.46550000      -0.82700000
H        0.51690000      -0.43290000       2.18730000
H        1.66290000      -2.78430000      -0.95910000
