12
Properties=species:S:1:pos:R:3 gdb_132710=T pbc="F F F"
F       -0.01540000       0.07400000       0.00360000
C       -0.02540000       1.38690000       0.01050000
N       -1.22430000       1.94630000       0.02980000
C       -1.21700000       3.27880000       0.03710000
C       -0.04020000       4.02600000       0.02540000
C       -0.04730000       5.50280000       0.03370000
O        0.94950000       6.18490000       0.02400000
C        1.15180000       3.29160000       0.00540000
N        1.16980000       1.96290000      -0.00220000
H       -2.18900000       3.76910000       0.05290000
H       -1.06160000       5.95920000       0.04970000
H        2.10770000       3.80780000      -0.00450000
