18
Properties=species:S:1:pos:R:3 gdb_54764=T pbc="F F F"
C        0.45110000       1.17930000       0.66210000
C        0.07410000      -0.14630000       0.08310000
C        0.53660000      -0.84660000      -1.22220000
C       -0.25870000      -1.85660000      -0.37060000
O        0.49010000      -1.38710000       0.82330000
C       -1.34580000      -0.77590000      -0.12070000
C       -2.34870000      -0.88940000       1.02190000
N       -1.84610000      -1.23660000       2.23620000
O       -3.52860000      -0.65860000       0.82410000
H        1.53700000       1.25400000       0.77250000
H        0.11100000       1.98420000       0.00350000
H       -0.01470000       1.31470000       1.64250000
H        0.10190000      -0.51020000      -2.16580000
H        1.60810000      -1.04080000      -1.28290000
H       -0.37710000      -2.93260000      -0.49210000
H       -1.89030000      -0.43780000      -1.00330000
H       -0.87280000      -1.49320000       2.31100000
H       -2.49500000      -1.37870000       2.99260000
