20
Properties=species:S:1:pos:R:3 gdb_117574=T pbc="F F F"
C        0.41420000       1.52920000       0.28250000
O        0.90270000       0.27810000      -0.13770000
C       -0.08390000      -0.51850000      -0.74460000
C        0.54130000      -1.87410000      -1.10680000
C        0.99420000      -2.59500000       0.08890000
C        1.33420000      -3.22540000       1.05540000
N       -0.41740000      -2.59290000      -1.96130000
C       -0.26040000      -4.03040000      -2.14660000
C       -1.39120000      -3.49040000      -1.34270000
H        0.02450000       2.12100000      -0.56110000
H       -0.39040000       1.42360000       1.02720000
H        1.24800000       2.06920000       0.73730000
H       -0.94130000      -0.67180000      -0.06880000
H       -0.46150000      -0.05820000      -1.67050000
H        1.41770000      -1.66320000      -1.73250000
H        1.65360000      -3.76200000       1.91460000
H       -0.41800000      -4.38470000      -3.16120000
H        0.52870000      -4.53500000      -1.59400000
H       -1.33760000      -3.64300000      -0.26750000
H       -2.39370000      -3.43970000      -1.75750000
