20
Properties=species:S:1:pos:R:3 gdb_102130=T pbc="F F F"
C        0.09870000       1.64270000      -0.04130000
C       -0.04540000       0.12030000       0.02410000
N        0.65400000      -0.48190000       1.16240000
C       -0.07100000      -0.75690000       2.32060000
N       -1.31130000      -0.51310000       2.41070000
C       -1.96460000      -0.85830000       3.65690000
C        2.03340000      -0.72880000       1.19580000
N        2.72470000      -0.38140000       0.05710000
O        2.59670000      -1.18290000       2.17420000
H        1.14560000       1.94540000      -0.13220000
H       -0.45080000       2.03580000      -0.90260000
H       -0.31530000       2.09550000       0.86330000
H       -1.09580000      -0.14620000       0.14930000
H        0.29610000      -0.35400000      -0.90310000
H        0.55240000      -1.19090000       3.10480000
H       -1.28830000      -1.29810000       4.40670000
H       -2.42710000       0.03570000       4.09180000
H       -2.77520000      -1.57120000       3.46430000
H        2.26420000      -0.29470000      -0.83200000
H        3.66750000      -0.73510000       0.04050000
