17
Properties=species:S:1:pos:R:3 gdb_14326=T pbc="F F F"
O       -0.27130000      -0.01230000       0.27150000
C       -0.20680000       1.17920000       0.06680000
C       -1.30750000       2.08620000      -0.50550000
C       -0.77870000       3.50440000      -0.30970000
C       -0.96400000       4.15770000       1.09450000
C        0.57740000       4.31380000       1.22060000
C        0.75400000       3.37750000      -0.00680000
N        0.89010000       1.97230000       0.29690000
H       -1.45220000       1.82550000      -1.55960000
H       -2.25180000       1.89100000       0.00930000
H       -1.01470000       4.18260000      -1.13010000
H       -1.54950000       5.07870000       1.12470000
H       -1.38590000       3.46030000       1.82320000
H        0.91550000       5.33010000       1.00020000
H        1.04150000       3.98340000       2.15290000
H        1.47130000       3.70080000      -0.76850000
H        1.73590000       1.56010000       0.65900000
