23
Properties=species:S:1:pos:R:3 gdb_106495=T pbc="F F F"
C        0.03040000       1.51960000       0.14430000
C       -0.03410000      -0.00480000      -0.02030000
C        0.69260000      -0.52840000      -1.24230000
C        2.24540000      -0.39820000      -1.44150000
C        1.95890000      -1.49930000      -2.48780000
C        0.90950000      -2.05960000      -1.50350000
O        1.16250000      -0.82580000      -3.47510000
C        0.23690000      -0.06990000      -2.65100000
C       -1.20260000      -0.34830000      -3.05460000
H        1.06710000       1.86910000       0.19390000
H       -0.45440000       2.03920000      -0.68840000
H       -0.47080000       1.83350000       1.06490000
H        0.39220000      -0.48230000       0.87100000
H       -1.08350000      -0.32590000      -0.06070000
H        2.64630000       0.54860000      -1.81280000
H        2.81110000      -0.75070000      -0.57630000
H        2.72540000      -2.09720000      -2.97830000
H        1.34710000      -2.56230000      -0.63830000
H        0.09230000      -2.65140000      -1.92090000
H        0.44440000       0.99980000      -2.79220000
H       -1.49210000      -1.38390000      -2.85690000
H       -1.88950000       0.31330000      -2.51570000
H       -1.32720000      -0.16310000      -4.12560000
