20
Properties=species:S:1:pos:R:3 gdb_74492=T pbc="F F F"
C        0.03780000       1.51050000      -0.05040000
C       -0.01820000       0.01250000       0.03090000
C       -1.15390000      -0.68960000       0.06090000
C       -1.16350000      -2.16980000       0.07730000
C       -2.16090000      -2.88840000       0.92090000
N       -2.28260000      -2.90710000      -0.54420000
C        0.20300000      -2.76170000      -0.21750000
O        1.21680000      -2.05990000       0.47980000
C        1.31020000      -0.70880000       0.07900000
H        0.60680000       1.84000000      -0.92970000
H       -0.96300000       1.94550000      -0.11510000
H        0.54200000       1.93930000       0.82530000
H       -2.11850000      -0.18260000       0.06070000
H       -1.89580000      -3.84150000       1.37200000
H       -2.86310000      -2.29310000       1.49940000
H       -3.00470000      -2.25620000      -0.84620000
H        0.26250000      -3.80520000       0.10060000
H        0.37980000      -2.72480000      -1.30520000
H        1.80610000      -0.62870000      -0.90760000
H        1.97440000      -0.22260000       0.80400000
