18
Properties=species:S:1:pos:R:3 gdb_18612=T pbc="F F F"
C       -0.22290000       1.58880000       0.01660000
C        0.04040000       0.07300000      -0.01530000
C        0.91190000      -0.40530000      -1.16460000
C        1.88160000      -1.23360000      -0.76160000
C        1.91080000      -1.37930000       0.72310000
C        2.20430000      -0.08900000       1.46380000
O        2.83820000       1.00140000       0.86760000
C        0.76730000      -0.47660000       1.21920000
H        0.70780000       2.14570000       0.14350000
H       -0.71090000       1.92130000      -0.90600000
H       -0.88290000       1.84430000       0.85160000
H       -0.93580000      -0.42840000      -0.10050000
H        0.73020000      -0.10160000      -2.19050000
H        2.60030000      -1.72120000      -1.41130000
H        2.16660000      -2.33190000       1.17420000
H        2.55190000      -0.19950000       2.48640000
H        2.78310000       0.87740000      -0.08930000
H        0.17050000      -0.75760000       2.08010000
