18
Properties=species:S:1:pos:R:3 gdb_78888=T pbc="F F F"
C        0.06060000       1.57350000      -0.03310000
C        0.00790000       0.05260000       0.00130000
N        0.75820000      -0.55430000      -1.10530000
C        2.16440000      -0.75270000      -0.68490000
C        1.22000000      -1.90360000      -0.71310000
C        1.20220000      -1.95030000       0.83650000
C        2.16490000      -0.77020000       0.86580000
C        0.71090000      -0.56340000       1.20890000
O        0.38120000      -0.22360000       2.51270000
H        1.09810000       1.92270000      -0.02390000
H       -0.42460000       1.96020000      -0.93300000
H       -0.44260000       1.98850000       0.84530000
H       -1.03250000      -0.29290000      -0.06150000
H        2.96930000      -0.46100000      -1.34710000
H        1.10460000      -2.72860000      -1.40470000
H        1.15920000      -2.81380000       1.48460000
H        2.98200000      -0.56810000       1.54230000
H       -0.45630000      -0.64740000       2.73070000
