9
Properties=species:S:1:pos:R:3 gdb_3917=T pbc="F F F"
O       -0.04230000      -0.02550000      -0.00070000
C        0.00720000       1.17910000       0.00840000
C        1.24100000       1.96800000       0.00160000
C        1.40840000       3.32840000       0.01070000
O        2.67720000       3.64060000      -0.00120000
N        3.39320000       2.30840000      -0.01860000
N        2.52090000       1.43700000      -0.01530000
H       -0.91170000       1.80530000       0.02240000
H        0.68960000       4.13450000       0.02450000
