18
Properties=species:S:1:pos:R:3 gdb_7053=T pbc="F F F"
C        0.05440000       1.48500000       0.00980000
C        0.01830000       0.02920000      -0.00210000
C       -0.00860000      -1.17490000      -0.00270000
C       -0.05830000      -2.63560000      -0.02890000
C       -1.50450000      -3.15140000       0.11590000
C        0.61040000      -3.18400000      -1.31620000
C        0.80530000      -4.68250000      -1.26770000
O        0.48780000      -5.45320000      -2.13580000
H        1.08380000       1.85790000       0.04820000
H       -0.41530000       1.90250000      -0.88760000
H       -0.47630000       1.88900000       0.87900000
H        0.52170000      -3.01240000       0.82690000
H       -2.11840000      -2.80960000      -0.72260000
H       -1.52830000      -4.24600000       0.13190000
H       -1.95490000      -2.78260000       1.04050000
H        0.03110000      -2.92320000      -2.20600000
H        1.60600000      -2.73050000      -1.41370000
H        1.29790000      -5.04620000      -0.33320000
