16
Properties=species:S:1:pos:R:3 gdb_9334=T pbc="F F F"
O       -0.00020000       1.36900000      -0.31770000
C       -0.01920000      -0.01890000       0.00370000
C       -1.47680000      -0.42700000       0.13470000
N       -2.18160000      -0.10950000      -1.09160000
C       -3.42070000      -0.61740000      -1.35680000
N       -3.97980000      -1.52120000      -0.64450000
C       -4.05860000      -0.04020000      -2.60280000
O       -5.13660000      -0.39080000      -3.00390000
H        0.90360000       1.62440000      -0.52240000
H        0.46140000      -0.61230000      -0.78780000
H        0.50240000      -0.22000000       0.95050000
H       -1.56140000      -1.50130000       0.31780000
H       -1.93100000       0.08390000       0.99630000
H       -1.91780000       0.76820000      -1.51420000
H       -4.86950000      -1.76590000      -1.08350000
H       -3.46630000       0.73880000      -3.13510000
