18
Properties=species:S:1:pos:R:3 gdb_8086=T pbc="F F F"
C       -0.11480000       1.51580000      -0.00480000
C        0.08900000       0.02430000      -0.10480000
C        1.31160000      -0.58850000      -0.85420000
C        1.07610000      -1.81860000       0.06220000
C        0.52430000      -0.83050000       1.12690000
O        0.02730000      -2.60740000      -0.50280000
C       -1.20960000      -1.92900000      -0.45540000
O       -1.09260000      -0.54420000      -0.69820000
H        0.78630000       2.00000000       0.38270000
H       -0.33890000       1.93470000      -0.99070000
H       -0.95230000       1.74760000       0.66060000
H        1.20070000      -0.74680000      -1.92820000
H        2.24580000      -0.06720000      -0.62710000
H        1.89420000      -2.49720000       0.30610000
H        1.34200000      -0.34290000       1.66190000
H       -0.22560000      -1.16830000       1.84460000
H       -1.84530000      -2.34810000      -1.24000000
H       -1.68620000      -2.09620000       0.52390000
