19
Properties=species:S:1:pos:R:3 gdb_101289=T pbc="F F F"
O        0.08000000       1.40040000       0.07010000
C       -0.00650000       0.00820000       0.27200000
C       -1.38530000      -0.51670000      -0.14500000
O       -1.67180000      -0.05100000      -1.46980000
C       -1.49120000      -2.01700000      -0.03020000
C       -1.82470000      -2.66740000       1.28310000
C       -2.83820000      -2.70830000       0.15030000
C       -4.05380000      -1.95360000       0.24400000
C       -5.08240000      -1.33560000       0.32710000
H       -0.37630000       1.56130000      -0.76690000
H        0.77140000      -0.53330000      -0.29960000
H        0.17330000      -0.18970000       1.33410000
H       -2.14790000      -0.04200000       0.48070000
H       -1.14540000      -0.57290000      -2.08690000
H       -0.78810000      -2.55950000      -0.66070000
H       -1.32640000      -3.59190000       1.55100000
H       -2.06050000      -2.02000000       2.12040000
H       -2.93850000      -3.66280000      -0.35820000
H       -5.98720000      -0.78410000       0.39220000
