19
Properties=species:S:1:pos:R:3 gdb_104051=T pbc="F F F"
C        0.15720000       1.48720000       0.06140000
C       -0.03570000      -0.01200000       0.10890000
C       -1.48280000      -0.45190000      -0.12880000
O       -1.86090000      -0.21000000      -1.46730000
O        0.78940000      -0.71020000      -0.90290000
C        1.36960000      -1.57060000       0.09410000
C        2.66080000      -1.00100000       0.69740000
O        1.90410000      -0.25030000       1.68550000
C        0.66190000      -0.81400000       1.23260000
H        1.20740000       1.74580000       0.20430000
H       -0.18970000       1.87100000      -0.90150000
H       -0.42850000       1.96750000       0.85240000
H       -1.58910000      -1.51890000       0.13110000
H       -2.16530000       0.11590000       0.51270000
H       -1.15710000      -0.59740000      -2.00470000
H        1.30260000      -2.63100000      -0.15210000
H        3.31210000      -1.73980000       1.18080000
H        3.24420000      -0.35950000       0.02930000
H        0.05620000      -1.22520000       2.04300000
