16
Properties=species:S:1:pos:R:3 gdb_54126=T pbc="F F F"
O       -0.24690000       1.28170000      -0.03070000
C       -0.06320000      -0.08080000       0.09830000
C       -0.40920000      -0.79430000       1.37550000
C       -1.54840000      -0.04440000       2.05540000
N       -2.34020000      -0.06140000       0.73740000
H       -3.28440000      -0.43250000       0.80650000
H       -2.31840000       0.85100000       0.26100000
C       -1.27470000      -0.96100000       0.12960000
C        1.13340000      -0.59800000      -0.75930000
O        1.64860000       0.36130000      -1.37870000
O        1.35340000      -1.80980000      -0.70960000
H        0.49450000       1.44230000      -0.69290000
H        0.23560000      -1.52790000       1.83640000
H       -2.10530000      -0.61730000       2.79760000
H       -1.36250000       0.97530000       2.39540000
H       -1.55500000      -1.78310000      -0.51330000
