12
Properties=species:S:1:pos:R:3 gdb_81730=T pbc="F F F"
O       -0.14600000       1.48930000       0.14350000
C       -0.01010000       0.11360000      -0.00580000
C       -1.32240000      -0.67250000      -0.00180000
O       -2.03100000      -0.32850000      -1.17980000
C       -1.01780000      -1.35440000      -1.29690000
C       -1.36860000      -2.64790000      -1.78140000
N       -1.59110000      -3.70640000      -2.18990000
C        0.28120000      -0.53050000      -1.41260000
O        1.17500000      -0.46890000      -2.19230000
H        0.70760000       1.90310000      -0.02580000
H        0.71030000      -0.33340000       0.70140000
H       -1.88150000      -1.07420000       0.83400000
