15
Properties=species:S:1:pos:R:3 gdb_42428=T pbc="F F F"
O        0.11670000       0.10740000      -0.73190000
C        0.04170000       1.18200000      -0.18960000
O        1.09540000       1.86010000       0.30620000
C        2.35310000       1.19030000       0.18090000
C        3.02270000       1.21500000      -1.20380000
O        4.16500000       1.91830000      -0.66740000
C        3.52970000       2.07030000       0.61870000
C       -1.18740000       1.91420000       0.01380000
C       -2.23740000       2.48010000       0.15630000
H        2.28490000       0.20400000       0.64050000
H        3.29160000       0.24450000      -1.63160000
H        2.47750000       1.80890000      -1.94740000
H        3.24050000       3.10780000       0.82600000
H        4.15040000       1.68930000       1.43650000
H       -3.16640000       2.98100000       0.28300000
