25
Properties=species:S:1:pos:R:3 gdb_36928=T pbc="F F F"
C       -0.17490000       1.50400000      -0.23180000
C       -0.19530000      -0.01050000      -0.18150000
C       -0.15200000      -0.72770000       1.14580000
C       -1.41400000      -0.74330000       0.31700000
C        1.22890000       2.11530000      -0.16610000
C        2.13960000       1.80360000      -1.36940000
C        3.28030000       2.84370000      -1.28420000
C        2.70310000       4.04140000      -0.47070000
C        1.24590000       3.65440000      -0.13630000
H       -0.67060000       1.84940000      -1.15100000
H       -0.77690000       1.89160000       0.60170000
H        0.34080000      -0.49570000      -0.99320000
H        0.42360000      -1.64320000       1.22700000
H       -0.14810000      -0.12170000       2.04640000
H       -2.25390000      -0.14950000       0.66370000
H       -1.69910000      -1.66920000      -0.17050000
H        1.72410000       1.74640000       0.74450000
H        2.50980000       0.77450000      -1.37710000
H        1.56480000       1.94490000      -2.29480000
H        4.14730000       2.41800000      -0.76930000
H        3.62720000       3.14560000      -2.27650000
H        3.27840000       4.18620000       0.44940000
H        2.75830000       4.98380000      -1.02280000
H        0.56470000       4.03330000      -0.91000000
H        0.90380000       4.06610000       0.81840000
