19
Properties=species:S:1:pos:R:3 gdb_63055=T pbc="F F F"
C       -0.08260000       1.59560000       0.06920000
C        0.04190000       0.08710000      -0.01550000
O       -1.21300000      -0.56860000       0.14110000
C        0.68800000      -0.59310000      -1.25690000
C        2.06890000      -0.00780000      -1.65380000
C        2.69850000      -0.70480000      -0.42760000
O        2.39230000      -0.00340000       0.80310000
C        1.09480000      -0.63080000       0.88300000
C        1.42780000      -1.59270000      -0.28610000
H        0.90100000       2.06980000       0.05230000
H       -0.68570000       1.98380000      -0.75780000
H       -0.57060000       1.88550000       1.00870000
H       -1.56760000      -0.31960000       1.00230000
H       -0.01010000      -0.88420000      -2.04070000
H        2.42270000      -0.48150000      -2.57590000
H        2.18950000       1.07540000      -1.73930000
H        3.73900000      -1.03300000      -0.45880000
H        0.81350000      -0.89700000       1.90630000
H        1.37250000      -2.67680000      -0.28760000
