17
Properties=species:S:1:pos:R:3 gdb_76166=T pbc="F F F"
C       -0.06350000       1.55410000      -0.02510000
C        0.04450000       0.04990000      -0.05700000
O       -1.06990000      -0.63400000      -0.54220000
C        1.32150000      -0.61840000      -0.41840000
O        2.39160000       0.18560000      -0.76350000
C        0.84830000      -0.66910000       1.06250000
N        1.56680000       0.14090000       2.00820000
C        0.31470000      -1.92550000       1.53290000
N       -0.09730000      -2.91540000       1.97130000
H        0.86640000       2.00460000       0.31910000
H       -0.28930000       1.91910000      -1.03120000
H       -0.87620000       1.86660000       0.64100000
H       -1.79090000      -0.54140000       0.09180000
H        1.21930000      -1.55760000      -0.95980000
H        3.20790000      -0.23990000      -0.48090000
H        0.96600000       0.41400000       2.77950000
H        2.34530000      -0.37500000       2.40670000
