18
Properties=species:S:1:pos:R:3 gdb_22670=T pbc="F F F"
C       -0.00120000       1.43830000      -0.08070000
O        0.16610000       0.04820000       0.07940000
C        0.64370000      -0.61640000      -1.08040000
C        1.11550000      -2.03580000      -0.69090000
C        0.47720000      -2.94560000      -1.72230000
C       -0.49020000      -2.15690000      -2.48700000
C       -0.41920000      -0.86760000      -2.13350000
N        0.80590000      -4.17550000      -1.83400000
O        0.08920000      -4.80890000      -2.86590000
H        0.93610000       1.92660000      -0.39130000
H       -0.77870000       1.68900000      -0.81750000
H       -0.30310000       1.83940000       0.88980000
H        1.46900000      -0.02400000      -1.51190000
H        2.20150000      -2.13960000      -0.65930000
H        0.72880000      -2.25310000       0.30950000
H       -1.14150000      -2.59070000      -3.23230000
H       -1.02400000      -0.07050000      -2.55050000
H        0.43310000      -5.70700000      -2.82640000
