18
Properties=species:S:1:pos:R:3 gdb_76871=T pbc="F F F"
C        0.28990000       1.61500000       0.08870000
C        0.09040000       0.10810000       0.04510000
C        0.95390000      -0.70820000      -0.99380000
O        1.89410000      -0.01510000      -1.76810000
C        1.53070000      -1.56770000       0.16720000
O        2.89860000      -1.21520000       0.48930000
C        2.81190000      -0.39680000       1.58300000
N        1.67970000      -0.09310000       2.05660000
C        0.68850000      -0.76400000       1.20210000
H        1.33980000       1.88300000       0.22600000
H       -0.04890000       2.06610000      -0.84860000
H       -0.27740000       2.05950000       0.91180000
H       -0.97260000      -0.11750000      -0.08850000
H        0.33080000      -1.29460000      -1.67700000
H        2.72070000      -0.00510000      -1.26970000
H        1.46760000      -2.65360000       0.08920000
H        3.77220000      -0.06980000       1.96600000
H       -0.03820000      -1.29780000       1.81680000
