20
Properties=species:S:1:pos:R:3 gdb_83428=T pbc="F F F"
C        0.01360000       1.59010000       0.59100000
C        0.10280000       0.08130000       0.58600000
N        0.99820000      -0.71310000      -0.29360000
C        2.31690000       0.01160000      -0.36430000
C        2.53380000      -0.08210000       1.16510000
C        1.15080000      -0.73630000       1.23220000
C        0.86160000      -1.94400000       2.05090000
C        0.10140000      -1.85670000       3.30950000
O       -0.49430000      -2.38310000       2.12560000
H        0.97790000       2.08640000       0.72020000
H       -0.42900000       1.94990000      -0.34430000
H       -0.63620000       1.91620000       1.40990000
H       -0.86930000      -0.40560000       0.61070000
H        3.02440000      -0.58400000      -0.94410000
H        2.25970000       1.01080000      -0.80600000
H        3.33740000      -0.77270000       1.43130000
H        2.67110000       0.84190000       1.73520000
H        1.58330000      -2.75710000       1.95030000
H        0.28620000      -2.57870000       4.10330000
H       -0.28130000      -0.88990000       3.63350000
