19
Properties=species:S:1:pos:R:3 gdb_50817=T pbc="F F F"
N       -0.11360000       0.70810000      -2.23640000
C       -0.12610000       0.21450000      -1.06140000
N       -1.34810000       0.36280000      -0.37540000
C       -1.76590000      -0.14270000       0.82860000
O       -1.12370000      -0.82010000       1.59850000
C        0.99760000      -0.47200000      -0.33530000
C        2.38000000      -0.61800000      -1.02410000
C        3.04260000      -0.35320000       0.35550000
C        1.70870000       0.27420000       0.83940000
H        0.79500000       0.56830000      -2.67370000
H       -2.03150000       0.87500000      -0.91830000
H       -2.81390000       0.15490000       1.02760000
H        0.64270000      -1.43610000       0.03520000
H        2.59370000      -1.56050000      -1.53260000
H        2.58270000       0.20710000      -1.71450000
H        3.26400000      -1.28450000       0.88370000
H        3.93380000       0.27720000       0.37060000
H        1.69500000       1.35770000       0.68750000
H        1.35370000       0.04460000       1.84310000
