22
Properties=species:S:1:pos:R:3 gdb_103484=T pbc="F F F"
C       -0.17870000       1.64880000      -0.19880000
C       -0.11090000       0.13620000      -0.14550000
C       -1.27030000      -0.47790000       0.63240000
O       -1.11700000      -0.24920000       2.02200000
C        0.55030000      -0.71390000      -1.17400000
C        1.49070000      -0.10040000      -2.20270000
C        2.61240000       0.59150000      -1.38430000
C        2.40680000       0.11370000       0.07990000
N        1.12840000      -0.61230000       0.18510000
H        0.69390000       2.12100000      -0.64830000
H       -1.05690000       1.95810000      -0.77640000
H       -0.30000000       2.03980000       0.81650000
H       -2.22130000      -0.01740000       0.34290000
H       -1.33250000      -1.55390000       0.41250000
H       -0.24300000      -0.60200000       2.23390000
H        0.09670000      -1.66910000      -1.43130000
H        1.89730000      -0.89710000      -2.83280000
H        0.97830000       0.59990000      -2.86990000
H        3.60370000       0.31580000      -1.75370000
H        2.54600000       1.67920000      -1.46230000
H        3.19380000      -0.58870000       0.37240000
H        2.43380000       0.94210000       0.79560000
