19
Properties=species:S:1:pos:R:3 gdb_15404=T pbc="F F F"
C       -0.12110000       1.38970000      -0.35680000
C       -0.12340000      -0.13540000      -0.22590000
C       -1.51850000      -0.70330000       0.07050000
C       -1.53870000      -2.20420000       0.26320000
C       -2.79320000      -2.99640000       0.01650000
N       -1.66040000      -3.11330000      -0.86970000
C       -1.68360000      -2.79310000      -2.21290000
O       -2.60730000      -3.00830000      -2.96070000
H        0.88370000       1.76900000      -0.56500000
H       -0.77670000       1.71820000      -1.17080000
H       -0.47370000       1.86660000       0.56450000
H        0.26600000      -0.58490000      -1.14790000
H        0.56530000      -0.43860000       0.57340000
H       -1.90810000      -0.23880000       0.98660000
H       -2.21380000      -0.43140000      -0.73440000
H       -0.86640000      -2.57070000       1.03910000
H       -3.01560000      -3.86720000       0.62710000
H       -3.66130000      -2.46630000      -0.36820000
H       -0.71440000      -2.38050000      -2.55300000
