20
Properties=species:S:1:pos:R:3 gdb_61838=T pbc="F F F"
C        0.21800000       1.54130000      -0.39860000
C        0.08680000       0.07710000      -0.05660000
N        1.32720000      -0.71130000       0.07300000
C        0.46350000      -0.52600000       1.24990000
C        1.05680000       0.24970000       2.40790000
O        0.04470000       0.81480000       3.23450000
C        2.02290000      -0.62370000       3.22340000
C        2.61650000       0.14150000       4.38470000
O        2.61100000      -0.23300000       5.52840000
H        1.10870000       1.98160000       0.05420000
H        0.30030000       1.67200000      -1.48270000
H       -0.65850000       2.09930000      -0.05350000
H       -0.74640000      -0.41770000      -0.55550000
H        1.21270000      -1.64190000      -0.31800000
H       -0.13530000      -1.38090000       1.57130000
H        1.61140000       1.10690000       2.01430000
H       -0.41080000       0.09640000       3.68780000
H        1.52300000      -1.51910000       3.61180000
H        2.83710000      -0.94630000       2.56020000
H        3.08280000       1.11340000       4.10030000
