22
Properties=species:S:1:pos:R:3 gdb_61397=T pbc="F F F"
C       -0.37270000       1.74330000      -0.84350000
C       -0.14010000       0.36050000      -0.20020000
C       -1.46570000      -0.37210000       0.15410000
C       -2.00690000      -0.10030000       1.57210000
C       -3.44790000      -0.62170000       1.67270000
C       -1.12960000      -0.75510000       2.65060000
O       -1.99570000       1.32370000       1.73790000
C        0.67670000      -0.47590000      -1.08660000
N        1.31190000      -1.13720000      -1.79090000
H        0.57740000       2.24480000      -1.04470000
H       -0.90880000       1.63830000      -1.79140000
H       -0.96790000       2.35410000      -0.16490000
H        0.44260000       0.50490000       0.71630000
H       -2.22410000      -0.07980000      -0.58000000
H       -1.33130000      -1.45250000       0.05240000
H       -3.50050000      -1.69570000       1.46820000
H       -3.84810000      -0.45550000       2.67960000
H       -4.08970000      -0.09840000       0.95880000
H       -0.10050000      -0.38870000       2.61080000
H       -1.52450000      -0.52880000       3.64790000
H       -1.11240000      -1.84390000       2.54150000
H       -2.31760000       1.52270000       2.62330000
