14
Properties=species:S:1:pos:R:3 gdb_80323=T pbc="F F F"
O       -0.02060000       1.44360000       0.29670000
C       -0.03290000       0.06490000       0.15250000
C       -0.48650000      -0.77330000       1.31180000
O       -1.26290000      -0.10630000       2.28340000
C       -2.37590000       0.34000000       1.62900000
N       -2.52470000       0.00750000       0.40010000
C       -1.33850000      -0.71160000       0.03220000
C       -3.28010000       1.11740000       2.39970000
C       -4.04120000       1.77280000       3.05870000
H       -0.56320000       1.82690000      -0.40170000
H        0.79360000      -0.36110000      -0.41590000
H        0.07390000      -1.60820000       1.71140000
H       -1.44490000      -1.49670000      -0.70660000
H       -4.71860000       2.35230000       3.63680000
