14
Properties=species:S:1:pos:R:3 gdb_27333=T pbc="F F F"
N        0.02780000       1.36970000       0.15340000
C       -0.02790000      -0.00250000       0.04890000
C       -1.14740000      -0.74520000       0.01560000
O       -1.09340000      -2.13410000      -0.02570000
C        0.12770000      -2.69200000      -0.02070000
O        0.05950000      -4.02410000      -0.03920000
N        1.25540000      -2.09870000      -0.00630000
C        1.27500000      -0.70460000       0.00750000
N        2.34090000       0.00200000      -0.02380000
H        0.94840000       1.72130000      -0.08130000
H       -0.74250000       1.89620000      -0.22770000
H       -2.16750000      -0.39220000       0.02580000
H       -0.87170000      -4.28050000      -0.04420000
H        3.15770000      -0.60850000      -0.05910000
