19
Properties=species:S:1:pos:R:3 gdb_70908=T pbc="F F F"
C       -0.02170000       1.50160000       0.03000000
C       -0.02040000      -0.01310000       0.02030000
C        0.30220000      -0.73420000      -1.33880000
C       -0.87060000      -1.67040000      -1.06180000
O       -1.64760000      -2.29590000      -2.01970000
C       -0.81120000      -2.13350000       0.38300000
O        0.41570000      -2.07170000       1.08070000
C        0.78260000      -0.68880000       1.13890000
C       -1.37560000      -0.78540000       0.07370000
H        0.98890000       1.89680000      -0.12380000
H       -0.65900000       1.89990000      -0.76540000
H       -0.39200000       1.89230000       0.98480000
H        0.08820000      -0.08330000      -2.19090000
H        1.29990000      -1.17420000      -1.44940000
H       -1.23080000      -3.13500000      -2.24620000
H       -1.44900000      -2.95870000       0.67770000
H        1.86590000      -0.61220000       0.99500000
H        0.52590000      -0.26700000       2.12330000
H       -2.35660000      -0.40680000       0.32950000
