20
Properties=species:S:1:pos:R:3 gdb_37732=T pbc="F F F"
C       -0.08350000       1.58210000      -0.00090000
C        1.41320000       1.22530000       0.03570000
C        1.21460000       0.02250000       0.99180000
C        1.89100000      -0.92130000       0.00300000
C        1.29840000      -2.33350000      -0.08000000
C       -0.14860000      -2.30460000      -0.62650000
C       -0.96940000      -1.10160000      -0.09790000
C       -0.01230000       0.05120000       0.02520000
N        1.20840000       0.06090000      -0.96030000
H       -0.49700000       2.07390000       0.88380000
H       -0.45070000       2.03520000      -0.92640000
H        2.28320000       1.87850000      -0.05120000
H        1.19770000       0.01620000       2.08870000
H        2.98490000      -0.90570000      -0.05950000
H        1.91060000      -2.97120000      -0.72660000
H        1.33200000      -2.78410000       0.92110000
H       -0.08970000      -2.20660000      -1.71450000
H       -0.66010000      -3.24880000      -0.41770000
H       -1.79100000      -0.87450000      -0.78600000
H       -1.41710000      -1.31420000       0.88080000
