13
Properties=species:S:1:pos:R:3 gdb_53776=T pbc="F F F"
C        0.58040000       1.31570000       0.04220000
C        0.37190000      -0.17440000       0.02550000
O        0.34830000      -0.88750000       0.99800000
C        0.16900000      -0.80360000      -1.37290000
O        0.13250000      -0.12910000      -2.37740000
C        0.02020000      -2.24320000      -1.38840000
C       -0.09410000      -3.44610000      -1.45640000
C       -0.26150000      -4.88000000      -1.52130000
O        0.64960000      -5.65420000      -1.68670000
H        1.46760000       1.57500000      -0.54500000
H       -0.26300000       1.81880000      -0.44100000
H        0.69270000       1.65800000       1.07080000
H       -1.31090000      -5.21510000      -1.40410000
