25
Properties=species:S:1:pos:R:3 gdb_42129=T pbc="F F F"
C       -0.04100000       1.56260000      -0.06870000
C        1.36520000       2.17190000       0.08920000
C        2.18910000       1.75860000       1.33570000
C        3.34840000       0.75410000       1.08630000
C        2.99010000      -0.71440000       1.09760000
C        2.44610000      -1.42080000       0.10490000
C        1.98450000      -0.88380000      -1.21890000
C        0.44230000      -0.72410000      -1.27500000
C       -0.20060000       0.03390000      -0.10150000
H       -0.66170000       1.93700000       0.75680000
H       -0.48430000       1.98050000      -0.98340000
H        1.95810000       1.99430000      -0.81480000
H        1.22370000       3.25910000       0.12210000
H        2.64150000       2.66470000       1.75420000
H        1.52610000       1.36910000       2.11790000
H        3.83350000       1.02190000       0.13920000
H        4.10460000       0.91620000       1.86240000
H        3.20820000      -1.23720000       2.02750000
H        2.24540000      -2.47780000       0.27880000
H        2.46920000       0.07270000      -1.43020000
H        2.28330000      -1.56650000      -2.02460000
H        0.17120000      -0.24500000      -2.22510000
H        0.00120000      -1.72860000      -1.30590000
H        0.16090000      -0.39620000       0.83920000
H       -1.27840000      -0.17110000      -0.12720000
