25
Properties=species:S:1:pos:R:3 gdb_58297=T pbc="F F F"
C        0.18820000       1.42890000       0.32430000
C       -0.07750000      -0.04450000      -0.01500000
C       -1.58560000      -0.32690000      -0.08780000
C        0.66680000      -0.44730000      -1.30310000
C        0.63190000      -1.95030000      -1.59380000
O        0.10130000       0.32000000      -2.36820000
C        0.88240000       0.41770000      -3.51620000
C        0.62780000      -0.49450000      -4.69200000
C        0.20580000       0.96160000      -4.73200000
H        1.26070000       1.62570000       0.43230000
H       -0.19440000       2.07950000      -0.46700000
H       -0.29930000       1.70860000       1.26380000
H        0.35120000      -0.66190000       0.78650000
H       -2.03720000       0.21540000      -0.92320000
H       -1.79940000      -1.39150000      -0.22000000
H       -2.07890000      -0.00420000       0.83460000
H        1.72160000      -0.14580000      -1.18300000
H       -0.38730000      -2.28820000      -1.80030000
H        1.25120000      -2.19530000      -2.46010000
H        1.01590000      -2.51130000      -0.73530000
H        1.91360000       0.71970000      -3.32610000
H        1.46830000      -0.81510000      -5.29860000
H       -0.16110000      -1.22900000      -4.57970000
H       -0.85400000       1.16960000      -4.63750000
H        0.75060000       1.65210000      -5.36570000
