22
Properties=species:S:1:pos:R:3 gdb_6412=T pbc="F F F"
C       -1.97510000       1.68920000      -1.13820000
C       -1.95200000       0.16880000      -1.29840000
O       -1.03750000      -0.22630000      -2.32160000
C       -1.65350000      -0.54650000       0.02870000
C       -1.62550000      -2.08370000      -0.04980000
C       -0.92070000      -2.69580000       1.16670000
C       -3.03830000      -2.66720000      -0.20150000
O       -3.04410000      -4.07730000      -0.37620000
H       -2.16140000       2.16990000      -2.10230000
H       -2.75400000       2.00310000      -0.43570000
H       -1.01430000       2.05410000      -0.75290000
H       -2.92770000      -0.15560000      -1.67890000
H       -0.16140000       0.08120000      -2.06170000
H       -0.67710000      -0.19100000       0.39010000
H       -2.38500000      -0.22440000       0.78320000
H       -1.06140000      -2.34910000      -0.95510000
H       -1.39960000      -2.37270000       2.09940000
H       -0.96960000      -3.78680000       1.12840000
H        0.13130000      -2.39520000       1.21180000
H       -3.61360000      -2.48330000       0.71460000
H       -3.57370000      -2.17270000      -1.02550000
H       -2.60120000      -4.26700000      -1.20970000
