12
Properties=species:S:1:pos:R:3 gdb_50812=T pbc="F F F"
N       -0.43040000       0.25780000       1.82790000
C       -0.06070000      -0.22100000       0.72100000
O       -0.87830000      -0.33510000      -0.35920000
C       -1.98900000       0.48990000      -0.45100000
O       -2.81150000       0.30130000      -1.28400000
C        1.32490000      -0.79290000       0.46000000
O        2.03440000      -1.12000000       1.37950000
C        1.89290000      -0.84840000      -0.96350000
O        1.58840000      -0.05810000      -1.81340000
H        0.34330000       0.21120000       2.49380000
H       -1.97020000       1.29110000       0.29860000
H        2.68750000      -1.61240000      -1.08250000
