14
Properties=species:S:1:pos:R:3 gdb_4995=T pbc="F F F"
C       -0.02870000       1.52370000      -0.00340000
C       -0.05610000       0.02390000       0.00230000
C       -1.17880000      -0.72490000      -0.15130000
C       -1.12690000      -2.15390000      -0.13500000
C        0.07290000      -2.74020000       0.03760000
O        1.20870000      -2.04060000       0.19320000
C        1.23220000      -0.63750000       0.18850000
O        2.29780000      -0.09930000       0.33660000
H        0.62660000       1.89740000      -0.79740000
H       -1.03060000       1.93500000      -0.14830000
H        0.38110000       1.90850000       0.93650000
H       -2.13680000      -0.23140000      -0.28960000
H       -2.01580000      -2.75780000      -0.25630000
H        0.24920000      -3.80880000       0.06910000
