15
Properties=species:S:1:pos:R:3 gdb_9869=T pbc="F F F"
C       -0.32180000       1.41920000      -0.27930000
C        0.01310000      -0.04050000      -0.02490000
C        0.97490000      -0.73740000      -0.94130000
N        1.38440000      -0.40340000       0.42250000
C       -1.03880000      -0.81590000       0.57700000
C       -1.96190000      -1.43160000       1.05690000
C       -3.02170000      -2.20260000       1.64860000
O       -4.18620000      -1.87190000       1.66540000
H        0.50990000       1.92010000      -0.78500000
H       -1.21170000       1.51030000      -0.90880000
H       -0.52140000       1.94040000       0.66190000
H        0.85450000      -1.79820000      -1.13640000
H        1.36120000      -0.15570000      -1.77470000
H        1.95580000       0.43920000       0.41970000
H       -2.68480000      -3.15550000       2.10530000
