22
Properties=species:S:1:pos:R:3 gdb_112178=T pbc="F F F"
C        0.13660000       1.62160000       0.08210000
C       -0.12220000       0.11620000      -0.04640000
C        0.64100000      -0.51270000      -1.20610000
N        2.10040000      -0.60460000      -1.03180000
C        2.19070000      -1.95620000      -1.25520000
O        3.12160000      -2.71530000      -1.32680000
C        0.64860000      -2.07990000      -1.40120000
C       -0.00730000      -2.92870000      -0.31410000
C        0.23200000      -2.53740000      -2.79920000
H        1.19530000       1.82690000       0.27510000
H       -0.14540000       2.15380000      -0.83320000
H       -0.43670000       2.05190000       0.90840000
H        0.15130000      -0.38430000       0.88810000
H       -1.19420000      -0.06010000      -0.20130000
H        0.36970000       0.00140000      -2.13880000
H        2.81940000       0.10440000      -1.02080000
H        0.31300000      -2.63860000       0.68990000
H       -1.09970000      -2.85790000      -0.35990000
H        0.26770000      -3.97850000      -0.45520000
H        0.53280000      -3.57690000      -2.96210000
H       -0.85480000      -2.47380000      -2.92440000
H        0.70090000      -1.92850000      -3.57870000
