16
Properties=species:S:1:pos:R:3 gdb_68966=T pbc="F F F"
C       -0.04600000       1.52270000      -0.10880000
C        0.03420000       0.03240000       0.00910000
C       -0.78760000      -0.79670000       0.94370000
C        0.73390000      -0.79750000       1.10890000
N        1.41680000      -1.86970000       0.40560000
C        1.15660000      -1.69250000      -0.82630000
O        0.40460000      -0.62580000      -1.20030000
C        1.34160000      -0.24540000       2.27990000
C        1.83360000       0.24880000       3.25950000
H        0.87260000       1.92430000      -0.54580000
H       -0.89100000       1.82290000      -0.73670000
H       -0.17800000       1.96400000       0.88210000
H       -1.34310000      -0.25320000       1.69900000
H       -1.24610000      -1.71300000       0.58720000
H        1.48860000      -2.32380000      -1.64130000
H        2.27690000       0.67150000       4.12690000
