25
Properties=species:S:1:pos:R:3 gdb_113813=T pbc="F F F"
C       -0.02790000       1.59330000      -0.28910000
C        0.00570000       0.15030000       0.22870000
C       -1.36090000      -0.50430000       0.20490000
C       -1.87560000      -1.19630000      -1.03640000
C       -1.56800000      -2.00540000       0.20490000
C       -0.42880000      -2.97680000       0.23030000
C       -0.10370000      -3.76610000       1.48030000
C       -0.63650000      -4.47850000       0.25980000
C       -2.00550000      -5.12310000       0.26400000
H        0.96650000       2.05020000      -0.26110000
H       -0.38900000       1.63150000      -1.32220000
H       -0.69680000       2.21470000       0.31690000
H        0.71190000      -0.43160000      -0.37420000
H        0.40040000       0.13860000       1.25340000
H       -2.10920000       0.05250000       0.76620000
H       -2.90940000      -1.05890000      -1.33510000
H       -1.18510000      -1.29340000      -1.86980000
H       -2.43690000      -2.33240000       0.76880000
H        0.43220000      -2.65980000      -0.35120000
H        0.93440000      -3.90030000       1.76500000
H       -0.78110000      -3.65570000       2.32250000
H        0.10280000      -5.04230000      -0.30460000
H       -2.71760000      -4.57080000       0.88390000
H       -2.42380000      -5.18290000      -0.74710000
H       -1.95140000      -6.14240000       0.66260000
