15
Properties=species:S:1:pos:R:3 gdb_36563=T pbc="F F F"
C        0.07020000      -1.13450000       0.16250000
C       -0.02350000       0.06020000       0.07040000
C       -0.06850000       1.53390000      -0.01270000
N        1.25380000       2.17960000       0.07310000
C        1.97600000       1.83850000       1.29800000
C        3.27780000       2.50740000       1.32860000
N        4.31580000       3.01310000       1.34940000
C       -0.74350000       1.96700000      -1.23920000
C       -1.29030000       2.31690000      -2.24830000
H        0.13440000      -2.19290000       0.23230000
H       -0.64860000       1.90250000       0.84670000
H        1.80380000       1.91670000      -0.73930000
H        1.38840000       2.18480000       2.15770000
H        2.13790000       0.75710000       1.43830000
H       -1.77640000       2.62930000      -3.13980000
