18
Properties=species:S:1:pos:R:3 gdb_125376=T pbc="F F F"
C        0.17310000       1.57710000      -0.08590000
C        0.04690000       0.08540000      -0.02550000
C        0.04670000      -0.80670000      -1.07850000
N       -0.09500000      -2.04470000      -0.54670000
N       -0.18250000      -2.02920000       0.79530000
C       -0.10300000      -0.73920000       1.12270000
C       -0.17220000      -0.32150000       2.54040000
C       -1.24440000      -0.86570000       3.42570000
N        0.14740000      -1.29340000       3.60010000
H        1.03180000       1.93600000       0.49310000
H        0.30760000       1.91740000      -1.11640000
H       -0.71540000       2.07940000       0.31320000
H        0.13590000      -0.65180000      -2.14280000
H       -0.11670000      -2.92680000      -1.02840000
H        0.19330000       0.68350000       2.73560000
H       -1.64490000      -0.25520000       4.23100000
H       -1.94740000      -1.55660000       2.96890000
H        0.27340000      -2.20060000       3.15380000
