19
Properties=species:S:1:pos:R:3 gdb_40127=T pbc="F F F"
C       -0.09410000       1.49300000      -0.01950000
N        1.21210000       0.80540000      -0.01000000
C       -0.03410000       0.01120000       0.01370000
C       -0.28840000      -0.74250000       1.31330000
C        0.14920000      -2.18500000       1.23370000
C        0.16770000      -2.86750000       0.08840000
C       -0.24480000      -2.23780000      -1.19130000
N       -1.58340000      -1.57970000      -1.20400000
C       -0.37020000      -0.75140000      -1.23210000
H       -0.32340000       2.04760000       0.88700000
H       -0.42930000       1.97400000      -0.93560000
H        1.61230000       0.80630000      -0.94620000
H        0.23930000      -0.22550000       2.12020000
H       -1.36000000      -0.70100000       1.54900000
H        0.43730000      -2.67110000       2.16150000
H        0.48190000      -3.90660000       0.06210000
H        0.06060000      -2.74140000      -2.10430000
H       -1.98210000      -1.63330000      -2.13830000
H       -0.11780000      -0.24350000      -2.16270000
