19
Properties=species:S:1:pos:R:3 gdb_127617=T pbc="F F F"
C        0.00160000       1.42030000      -0.01920000
N       -0.02860000      -0.02370000       0.03770000
N        0.00460000      -0.74360000      -1.11460000
C        0.02820000      -2.02410000      -0.73300000
C        0.00560000      -2.13460000       0.66970000
C       -0.02720000      -0.83570000       1.11810000
C       -0.01410000      -0.69780000       2.60780000
C       -0.31500000      -2.17440000       3.03360000
C        0.04310000      -3.09970000       1.82110000
H        1.02460000       1.80560000       0.06100000
H       -0.41880000       1.73100000      -0.97590000
H       -0.59740000       1.83660000       0.79480000
H        0.04590000      -2.79540000      -1.48950000
H        0.96490000      -0.36180000       2.97540000
H       -0.75730000       0.00180000       3.00550000
H        0.21730000      -2.45530000       3.94590000
H       -1.38480000      -2.26510000       3.24410000
H       -0.66270000      -3.93220000       1.73470000
H        1.03870000      -3.54630000       1.94380000
