23
Properties=species:S:1:pos:R:3 gdb_59368=T pbc="F F F"
C        0.24560000       1.38880000       0.19210000
C       -0.04540000      -0.11420000       0.19130000
O        0.41100000      -0.72460000       1.39490000
C       -1.53300000      -0.44760000      -0.08410000
C       -1.80460000      -1.97740000      -0.20190000
C       -2.62400000      -2.39990000       1.05560000
C       -1.85450000      -3.31880000       2.01930000
C       -2.99450000      -1.07190000       1.67420000
C       -2.43680000      -0.03080000       1.05700000
H        1.30800000       1.56240000       0.38270000
H       -0.01370000       1.84360000      -0.77000000
H       -0.32370000       1.90450000       0.97360000
H        0.55170000      -0.58470000      -0.59980000
H       -0.20470000      -0.46650000       2.09220000
H       -1.80690000       0.07030000      -1.01260000
H       -2.37510000      -2.18450000      -1.11130000
H       -0.86990000      -2.54010000      -0.27110000
H       -3.53790000      -2.92800000       0.75130000
H       -0.89080000      -2.87230000       2.28110000
H       -2.42000000      -3.49510000       2.94110000
H       -1.66100000      -4.29180000       1.55530000
H       -3.65480000      -1.00480000       2.53400000
H       -2.58370000       1.00670000       1.33900000
