14
Properties=species:S:1:pos:R:3 gdb_10477=T pbc="F F F"
C       -0.02130000       1.45270000      -0.00680000
C        0.00830000      -0.00120000       0.01030000
C        0.02730000      -1.20470000       0.01910000
C        0.06840000      -2.64660000       0.02540000
C       -0.59350000      -3.39850000       1.12550000
O       -1.20380000      -3.31880000      -0.14960000
C        1.18490000      -3.25440000      -0.66220000
C        2.12110000      -3.75120000      -1.22740000
H        0.74930000       1.85410000      -0.67360000
H       -0.99120000       1.82040000      -0.35890000
H        0.15060000       1.86710000       0.99250000
H       -0.19390000      -4.37260000       1.40260000
H       -1.07370000      -2.82990000       1.92000000
H        2.94540000      -4.19010000      -1.73330000
