15
Properties=species:S:1:pos:R:3 gdb_18492=T pbc="F F F"
N        0.05580000      -1.12600000      -0.51880000
C        0.01320000       0.00030000      -0.26530000
C       -0.03100000       1.42190000       0.07040000
C        1.34930000       2.08280000       0.01520000
O        1.91780000       2.13130000      -1.31880000
C        2.16950000       3.53380000      -1.16930000
C        0.89010000       4.29140000      -1.05970000
C        1.46110000       3.59820000       0.16540000
H       -0.71850000       1.92850000      -0.61310000
H       -0.43370000       1.53130000       1.08450000
H        2.03940000       1.55680000       0.68540000
H        3.12110000       3.91800000      -1.51510000
H        0.98660000       5.37230000      -1.03130000
H        0.00220000       3.92550000      -1.56680000
H        1.71490000       4.12200000       1.07630000
