19
Properties=species:S:1:pos:R:3 gdb_8225=T pbc="F F F"
N        0.03880000       1.22540000       0.41500000
C        0.18460000      -0.09130000       0.07860000
O        1.27680000      -0.61630000      -0.02170000
C       -1.12490000      -0.84200000      -0.16840000
C       -0.98810000      -2.33690000       0.07420000
C       -0.90420000      -2.86910000       1.53270000
C       -1.77590000      -4.07740000       1.09540000
C       -2.22280000      -3.25420000      -0.14370000
H        0.86880000       1.79070000       0.48970000
H       -0.85670000       1.68070000       0.41770000
H       -1.92820000      -0.41970000       0.44900000
H       -1.41070000      -0.65840000      -1.21430000
H       -0.13060000      -2.70360000      -0.49580000
H        0.08850000      -3.06640000       1.94190000
H       -1.44530000      -2.21680000       2.22760000
H       -1.16170000      -4.93570000       0.80880000
H       -2.55220000      -4.42170000       1.78260000
H       -3.15900000      -2.71860000       0.04950000
H       -2.31240000      -3.77080000      -1.10300000
