16
Properties=species:S:1:pos:R:3 gdb_48887=T pbc="F F F"
O       -0.71660000       0.95980000       0.58310000
C        0.25360000       0.89050000      -0.12830000
C        1.40960000       1.85450000      -0.06780000
C        1.67970000       2.55230000       1.26480000
O        2.66000000       3.54840000       0.93790000
C        2.56480000       3.78050000      -0.44840000
C        2.85580000       2.61300000      -1.38380000
N        2.67970000       1.34060000      -0.67940000
C        1.43160000       3.04270000      -1.08370000
H        0.36910000       0.10560000      -0.90620000
H        0.76540000       3.00710000       1.66770000
H        2.10650000       1.88190000       2.01810000
H        2.82010000       4.79030000      -0.74720000
H        3.43530000       2.68490000      -2.29770000
H        3.40540000       1.16460000       0.01610000
H        0.62190000       3.41960000      -1.69160000
