21
Properties=species:S:1:pos:R:3 gdb_119100=T pbc="F F F"
C       -0.24350000       1.54210000      -0.00990000
C       -0.13430000       0.09000000      -0.03210000
C       -0.05040000      -1.11270000      -0.04820000
C        0.06390000      -2.54970000      -0.08770000
C        1.19260000      -3.10000000      -0.95210000
C        2.57660000      -2.67730000      -0.47220000
O        3.53070000      -3.26650000      -1.34500000
C       -0.30710000      -3.32120000       1.17400000
C       -1.22660000      -3.35320000      -0.01250000
H        0.27010000       1.99120000      -0.86730000
H       -1.29030000       1.86410000      -0.04960000
H        0.19850000       1.96660000       0.89880000
H        1.14410000      -4.19480000      -0.95750000
H        1.06480000      -2.76860000      -1.98880000
H        2.64810000      -1.57980000      -0.47810000
H        2.72610000      -3.01060000       0.56760000
H        4.40420000      -2.96490000      -1.08020000
H        0.27560000      -4.20890000       1.39660000
H       -0.60950000      -2.74830000       2.04220000
H       -2.15500000      -2.79790000       0.04490000
H       -1.27650000      -4.26150000      -0.60340000
