17
Properties=species:S:1:pos:R:3 gdb_82964=T pbc="F F F"
O        0.06390000       1.37670000      -0.06940000
C       -0.02840000      -0.00410000      -0.05420000
C       -0.47360000      -0.69480000       1.21210000
O       -0.89990000       0.20160000       2.21030000
C       -2.26190000       0.03640000       2.52890000
C       -3.18400000       1.18640000       2.22480000
C       -3.16910000      -0.02770000       1.33350000
O       -2.50870000       0.11580000       0.10460000
C       -1.37730000      -0.70200000      -0.00720000
H       -0.26900000       1.67940000       0.78590000
H        0.74790000      -0.47890000      -0.64690000
H        0.00470000      -1.59840000       1.58270000
H       -2.44040000      -0.59010000       3.39920000
H       -4.03750000       1.34380000       2.87480000
H       -2.73460000       2.08470000       1.81690000
H       -4.01880000      -0.70660000       1.31930000
H       -1.52650000      -1.62380000      -0.56650000
