19
Properties=species:S:1:pos:R:3 gdb_80634=T pbc="F F F"
C        0.04680000       1.41880000      -0.09490000
N       -0.06660000      -0.02160000       0.05600000
C       -1.43310000      -0.54760000       0.27510000
C       -1.67400000      -0.40370000       1.80890000
C       -0.50990000      -1.43990000       1.84530000
C       -1.13650000      -2.04110000       0.55190000
C        0.63410000      -0.57980000       1.24710000
C        1.83500000      -1.34030000       0.88040000
N        2.78410000      -1.94350000       0.61430000
H        1.09680000       1.68620000      -0.24740000
H       -0.50760000       1.73160000      -0.98500000
H       -0.33120000       1.99860000       0.76650000
H       -2.13940000      -0.20850000      -0.48180000
H       -1.51850000       0.57290000       2.27550000
H       -2.62030000      -0.83410000       2.14050000
H       -0.26370000      -2.03450000       2.72340000
H       -2.03350000      -2.62460000       0.76290000
H       -0.48200000      -2.55990000      -0.15080000
H        0.93680000       0.20650000       1.95180000
