17
Properties=species:S:1:pos:R:3 gdb_1354=T pbc="F F F"
C       -0.07240000       1.56850000       0.32030000
C        0.02810000       0.07630000       0.01460000
C       -1.33150000      -0.57640000      -0.22170000
O        0.86980000      -0.08380000      -1.13130000
C        1.83760000      -1.07640000      -0.83100000
C        1.98890000      -0.93800000       0.68100000
O        0.66930000      -0.61630000       1.08990000
H        0.92060000       1.97370000       0.53010000
H       -0.49150000       2.10330000      -0.53640000
H       -0.71410000       1.73550000       1.18950000
H       -1.85870000      -0.07120000      -1.03530000
H       -1.19900000      -1.62870000      -0.48500000
H       -1.94150000      -0.51940000       0.68390000
H        1.48170000      -2.08110000      -1.10440000
H        2.74900000      -0.85720000      -1.39360000
H        2.29660000      -1.85760000       1.18570000
H        2.69660000      -0.13540000       0.93770000
