23
Properties=species:S:1:pos:R:3 gdb_89982=T pbc="F F F"
C       -0.37760000       1.42800000       0.04030000
C       -0.08490000      -0.06990000      -0.00430000
C        1.12730000      -0.47290000      -0.89690000
C        2.01700000      -0.59370000       0.37230000
C        3.14040000      -1.65380000       0.47280000
C        4.19100000      -0.53000000       0.26640000
C        3.09020000       0.50970000       0.60820000
C        0.71840000      -0.61630000       1.21920000
O        0.67700000       0.05230000       2.45600000
H        0.53090000       2.02420000       0.18920000
H       -0.82660000       1.76220000      -0.90060000
H       -1.07490000       1.66890000       0.84950000
H       -1.01380000      -0.61020000      -0.21010000
H        0.98180000      -1.43660000      -1.39400000
H        1.44060000       0.25950000      -1.64740000
H        3.19220000      -2.08580000       1.47780000
H        3.11960000      -2.46950000      -0.25570000
H        5.07940000      -0.54520000       0.90200000
H        4.51340000      -0.45630000      -0.77570000
H        3.03570000       1.41110000      -0.00900000
H        3.12940000       0.80490000       1.66230000
H        0.42970000      -1.64970000       1.44010000
H        0.91280000       0.97360000       2.30620000
