13
Properties=species:S:1:pos:R:3 gdb_127523=T pbc="F F F"
C       -0.01260000       1.41630000      -0.01820000
N        0.03060000      -0.03230000       0.00770000
N        0.16890000      -0.73790000      -1.13660000
C        0.16370000      -1.99140000      -0.69430000
O        0.28160000      -3.01730000      -1.53790000
N        0.03320000      -2.14430000       0.64180000
C       -0.04880000      -0.88210000       1.05690000
C       -0.19870000      -0.44350000       2.39870000
N       -0.32080000      -0.04770000       3.47940000
H        0.91410000       1.80340000      -0.44750000
H       -0.85680000       1.74740000      -0.62700000
H       -0.12770000       1.78080000       1.00300000
H        0.25340000      -3.82470000      -1.00970000
