17
Properties=species:S:1:pos:R:3 gdb_8550=T pbc="F F F"
O       -0.05320000       1.43140000      -0.01510000
C       -0.01200000       0.03620000       0.01600000
C        0.38570000      -0.72600000      -1.27760000
C       -0.72460000      -1.77740000      -1.00010000
C       -0.35610000      -2.72290000       0.15810000
N       -0.67810000      -1.68510000       1.19650000
C        0.44420000      -0.68820000       1.30170000
C       -1.30630000      -0.82940000       0.09830000
H        0.83330000       1.75880000      -0.20490000
H        0.12200000      -0.11160000      -2.14370000
H        1.41730000      -1.07990000      -1.38090000
H       -1.27670000      -2.17200000      -1.85350000
H       -1.05450000      -3.56020000       0.25730000
H        0.66710000      -3.11500000       0.19730000
H        1.45000000      -1.12320000       1.33580000
H        0.29200000      -0.05770000       2.18380000
H       -2.32710000      -0.46620000       0.20390000
