21
Properties=species:S:1:pos:R:3 gdb_92976=T pbc="F F F"
C        0.06250000       1.59550000      -0.01100000
C        0.05560000       0.06080000      -0.00680000
C        0.90760000      -0.49220000      -1.18440000
C        2.23580000      -0.80060000      -0.53810000
C        2.14960000      -0.82330000       0.78920000
C        0.73560000      -0.55820000       1.26380000
C        0.58610000       0.25570000       2.53220000
C        1.53730000       0.21350000       3.65070000
O        1.49730000       1.33340000       2.76450000
H        1.08210000       1.98430000       0.06620000
H       -0.37860000       1.96980000      -0.94070000
H       -0.51270000       2.01260000       0.82030000
H       -0.98090000      -0.28410000      -0.08240000
H        0.46650000      -1.40360000      -1.61330000
H        0.98660000       0.22780000      -2.00760000
H        3.13340000      -1.01060000      -1.10950000
H        2.96600000      -1.05540000       1.46260000
H        0.24900000      -1.52510000       1.47860000
H       -0.44820000       0.49880000       2.78630000
H        1.18490000       0.40580000       4.66350000
H        2.43250000      -0.40230000       3.58670000
