25
Properties=species:S:1:pos:R:3 gdb_42019=T pbc="F F F"
C       -0.04200000       1.56480000      -0.08180000
C        1.44850000       2.01830000      -0.02810000
C        2.19770000       0.80980000       0.55110000
C        3.70290000       0.69500000       0.31840000
C        4.21840000      -0.64320000       0.88120000
C        3.43800000      -1.85160000       0.33200000
C        1.91720000      -1.71010000       0.53240000
C        1.43830000      -0.38330000      -0.05330000
C       -0.03150000       0.02050000       0.13100000
H       -0.63660000       2.06100000       0.69040000
H       -0.49660000       1.83100000      -1.04030000
H        1.81950000       2.22910000      -1.03870000
H        1.59070000       2.93100000       0.55840000
H        2.02040000       0.78750000       1.63910000
H        3.90870000       0.74770000      -0.76060000
H        4.24040000       1.53180000       0.78040000
H        5.28630000      -0.75940000       0.66400000
H        4.12620000      -0.62570000       1.97610000
H        3.64550000      -1.95290000      -0.74240000
H        3.79820000      -2.77310000       0.80330000
H        1.39470000      -2.55780000       0.07310000
H        1.67990000      -1.74010000       1.60590000
H        1.65740000      -0.39130000      -1.13390000
H       -0.35390000      -0.22600000       1.15010000
H       -0.70780000      -0.50370000      -0.55080000
