22
Properties=species:S:1:pos:R:3 gdb_105899=T pbc="F F F"
C        0.05770000       1.53600000       0.08260000
C       -0.00820000       0.00680000      -0.02480000
C       -1.42210000      -0.52370000      -0.03710000
C       -2.57370000      -0.26620000      -1.02040000
C       -2.50510000      -0.72910000      -2.46290000
N       -3.25440000      -1.22180000      -0.03920000
C       -1.92000000      -2.00000000       0.13780000
C       -2.02150000      -1.90770000       1.66250000
C       -2.47700000      -0.55100000       1.12250000
H        1.09340000       1.88830000       0.08020000
H       -0.45940000       2.01530000      -0.75530000
H       -0.41380000       1.88730000       1.00640000
H        0.50370000      -0.32210000      -0.93900000
H        0.54090000      -0.44730000       0.81060000
H       -3.02380000       0.73410000      -0.95990000
H       -2.04260000      -1.71650000      -2.55620000
H       -3.51100000      -0.78680000      -2.89170000
H       -1.92220000      -0.02650000      -3.06850000
H       -1.69240000      -2.86740000      -0.48380000
H       -2.79550000      -2.52310000       2.12870000
H       -1.08750000      -1.93460000       2.22900000
H       -2.91210000       0.30370000       1.64520000
