19
Properties=species:S:1:pos:R:3 gdb_12482=T pbc="F F F"
O        0.02010000      -0.07340000      -0.18540000
C       -0.04010000       1.13860000      -0.07350000
C       -1.36750000       1.87570000       0.07020000
C       -1.54910000       2.60630000       1.41640000
C       -0.83730000       3.96240000       1.51740000
C        0.69120000       3.91660000       1.40010000
C        1.20340000       3.35000000       0.06750000
N        1.09390000       1.90420000      -0.05840000
H       -1.48670000       2.59080000      -0.75520000
H       -2.13390000       1.10810000      -0.04900000
H       -2.62140000       2.77140000       1.56990000
H       -1.22240000       1.94760000       2.23110000
H       -1.23000000       4.62440000       0.73230000
H       -1.10480000       4.43180000       2.47130000
H        1.08170000       4.93600000       1.50790000
H        1.11940000       3.32430000       2.21840000
H        0.68840000       3.84980000      -0.76590000
H        2.26480000       3.58810000      -0.04240000
H        1.94270000       1.36570000      -0.14150000
