16
Properties=species:S:1:pos:R:3 gdb_20971=T pbc="F F F"
C        0.20150000       1.40740000       0.02610000
N       -0.29780000       0.04050000       0.00330000
C       -0.05080000      -0.71650000       1.21630000
C       -0.11850000      -0.66860000      -1.18030000
C        0.11570000      -2.00250000      -1.36910000
O        0.15190000      -2.28950000      -2.68940000
N       -0.03740000      -1.12880000      -3.40940000
C       -0.19810000      -0.17910000      -2.52220000
H        1.30270000       1.46810000       0.00600000
H       -0.18760000       1.96740000      -0.82740000
H       -0.15390000       1.90090000       0.93480000
H       -0.31990000      -0.10830000       2.08350000
H       -0.67690000      -1.61430000       1.22450000
H        1.00260000      -1.02950000       1.32490000
H        0.26160000      -2.83570000      -0.70320000
H       -0.36760000       0.83080000      -2.86530000
