15
Properties=species:S:1:pos:R:3 gdb_27180=T pbc="F F F"
O       -0.27540000       1.40330000       0.24330000
C       -0.06440000       0.07840000       0.07940000
C        0.15360000      -0.57230000      -1.11210000
N        0.33060000      -1.89750000      -0.73960000
C        0.19310000      -1.97010000       0.60500000
N       -0.03460000      -0.78240000       1.13630000
C        0.23380000      -0.12990000      -2.50800000
C        1.33520000      -0.51150000      -3.41330000
O        0.06540000      -1.16660000      -3.49360000
H       -0.41910000       1.53900000       1.18780000
H        0.39890000      -2.65700000      -1.39770000
H        0.26200000      -2.89930000       1.14920000
H       -0.29360000       0.79830000      -2.72230000
H        1.58480000       0.12550000      -4.26080000
H        2.15310000      -1.11880000      -3.02840000
