18
Properties=species:S:1:pos:R:3 gdb_106887=T pbc="F F F"
C       -0.14590000       1.56620000       0.02270000
C        0.02490000       0.05490000      -0.02810000
C        1.17360000      -0.57900000      -0.87200000
O        1.40950000      -0.62190000      -2.04300000
C        1.74220000      -1.27290000       0.35000000
N        1.99310000      -0.15740000       1.33220000
C        0.62870000      -0.69460000       1.18220000
C       -0.12870000      -1.30040000       2.32170000
O       -0.76530000      -0.31930000       3.12680000
H        0.76950000       2.04280000       0.38120000
H       -0.37090000       1.95650000      -0.97420000
H       -0.96780000       1.83920000       0.69160000
H       -0.90470000      -0.43640000      -0.34430000
H        2.28280000      -2.20780000       0.43310000
H        2.42260000      -0.60820000       2.14290000
H       -0.93580000      -1.93600000       1.94230000
H        0.54480000      -1.94240000       2.91450000
H       -0.08970000       0.29330000       3.43710000
