15
Properties=species:S:1:pos:R:3 gdb_8053=T pbc="F F F"
O       -0.07030000       1.37320000       0.05410000
C        0.05450000      -0.00080000       0.03540000
C        0.52950000      -0.95810000      -1.08550000
N        0.07910000      -1.92190000       0.02200000
C        0.79880000      -0.96680000       0.99110000
C       -1.14620000      -0.96860000       0.16840000
C       -1.91420000      -1.05360000       1.39040000
C       -2.58730000      -1.11390000       2.38480000
H        0.80850000       1.76730000       0.02200000
H       -0.06640000      -1.02710000      -1.99900000
H        1.60050000      -1.01960000      -1.29170000
H        1.88740000      -1.02630000       0.91540000
H        0.45330000      -1.04570000       2.02210000
H       -1.80000000      -1.02930000      -0.70650000
H       -3.17750000      -1.16790000       3.26630000
