18
Properties=species:S:1:pos:R:3 gdb_92731=T pbc="F F F"
C        0.10930000       1.44930000       0.71120000
C       -0.06760000       0.09840000       0.08670000
C       -1.22280000      -0.56740000      -0.01280000
C       -1.29130000      -1.90950000      -0.69530000
C        0.03180000      -2.65710000      -0.50710000
O        0.08780000      -3.82980000      -1.27020000
C        1.22360000      -1.76220000      -0.85710000
O        2.20030000      -2.20530000      -1.43600000
N        1.11750000      -0.46720000      -0.43590000
H        0.80700000       1.40890000       1.55640000
H        0.51630000       2.16920000      -0.01060000
H       -0.84630000       1.83500000       1.06950000
H       -2.12380000      -0.12170000       0.39070000
H       -2.10800000      -2.51870000      -0.29770000
H       -1.48400000      -1.79680000      -1.77260000
H        0.14130000      -2.88160000       0.57140000
H        0.98980000      -3.85440000      -1.62840000
H        1.92360000       0.12040000      -0.59470000
