16
Properties=species:S:1:pos:R:3 gdb_45645=T pbc="F F F"
O       -0.16210000      -0.08550000       0.00090000
C       -0.09240000       1.11410000       0.11620000
C       -1.24670000       2.16670000       0.03430000
C       -0.59560000       3.52300000       0.26990000
C        0.70310000       3.27370000       0.43490000
C        2.13360000       3.62000000       0.74740000
C        2.59670000       2.76090000       1.92180000
C        2.43720000       2.11190000       0.58250000
N        1.01440000       1.91040000       0.30620000
H       -1.73500000       2.07640000      -0.94320000
H       -2.00400000       1.91680000       0.78640000
H       -1.10980000       4.47110000       0.29070000
H        2.69140000       4.47630000       0.39840000
H        3.62150000       2.94690000       2.22980000
H        1.91060000       2.51860000       2.72700000
H        3.20870000       1.60130000       0.02350000
