15
Properties=species:S:1:pos:R:3 gdb_20596=T pbc="F F F"
C       -0.08410000       1.52530000       0.12980000
C       -0.00350000       0.04120000      -0.02010000
C        0.04910000      -0.73550000      -1.15950000
C        0.06790000      -0.43490000      -2.62080000
O       -0.31850000      -1.61780000      -3.30840000
N        0.12760000      -2.00020000      -0.68500000
N        0.10970000      -2.03170000       0.65740000
N        0.03870000      -0.79450000       1.06040000
H        0.88270000       2.01090000      -0.04770000
H       -0.80450000       1.96510000      -0.56850000
H       -0.39730000       1.76970000       1.14720000
H       -0.61400000       0.40310000      -2.83190000
H        1.07610000      -0.11390000      -2.92890000
H       -0.16280000      -1.48800000      -4.24830000
H        0.12970000      -2.85070000      -1.22590000
