10
Properties=species:S:1:pos:R:3 gdb_3821=T pbc="F F F"
N       -0.00200000      -1.13530000      -0.00370000
C       -0.02450000       0.02140000       0.00320000
C        0.00170000       1.44430000       0.01090000
N       -1.13310000       2.15550000       0.02960000
N       -0.71480000       3.42340000       0.03130000
C        0.63660000       3.55540000       0.01460000
C        1.14720000       2.27850000       0.00080000
H       -1.40510000       4.15660000       0.04440000
H        1.11410000       4.52190000       0.01390000
H        2.18080000       1.97720000      -0.01430000
