23
Properties=species:S:1:pos:R:3 gdb_58514=T pbc="F F F"
C        0.12090000       1.50630000      -0.08550000
C        0.02380000      -0.00860000       0.11200000
O        0.66240000      -0.41380000       1.32350000
C       -1.40850000      -0.56750000       0.02650000
C       -2.32260000      -0.00440000       1.11760000
C       -2.10690000      -0.51440000      -1.38380000
C       -2.27960000      -2.03780000      -1.34190000
C       -0.93470000      -2.70030000      -1.26360000
C       -1.52210000      -2.10760000      -0.01440000
H        1.16980000       1.81570000      -0.08200000
H       -0.32700000       1.81660000      -1.03500000
H       -0.39250000       2.04890000       0.71670000
H        0.61770000      -0.49050000      -0.67260000
H        0.31170000       0.12880000       2.03740000
H       -2.46640000       1.07630000       1.01720000
H       -3.30900000      -0.47580000       1.06740000
H       -1.91990000      -0.20840000       2.11660000
H       -3.04430000       0.04640000      -1.36060000
H       -1.50010000      -0.13790000      -2.21550000
H       -3.16750000      -2.57580000      -1.65100000
H       -0.94530000      -3.78520000      -1.29690000
H       -0.07160000      -2.25670000      -1.75420000
H       -1.72740000      -2.72000000       0.85600000
