15
Properties=species:S:1:pos:R:3 gdb_52515=T pbc="F F F"
C        0.04980000       1.37480000      -0.07510000
C        0.00590000      -0.07540000      -0.05550000
C       -0.03760000      -1.28150000      -0.04200000
C       -0.05560000      -2.71310000       0.00200000
O       -1.06740000      -3.38070000       0.07350000
C        1.31390000      -3.44130000      -0.02630000
O        1.11420000      -4.81280000       0.16840000
C        1.99800000      -3.13730000      -1.28860000
C        2.55100000      -2.89610000      -2.32750000
H        0.80240000       1.73310000      -0.78520000
H       -0.92010000       1.79740000      -0.35590000
H        0.31380000       1.76270000       0.91490000
H        1.91060000      -3.03190000       0.80440000
H        0.15130000      -4.93630000       0.10750000
H        3.04620000      -2.69030000      -3.24440000
