19
Properties=species:S:1:pos:R:3 gdb_55031=T pbc="F F F"
N        0.66930000       0.11930000      -0.68860000
C       -0.33510000       0.41340000       0.19230000
O       -0.41180000       1.47490000       0.78460000
C       -1.40730000      -0.63220000       0.36170000
C       -2.01570000      -1.35050000      -0.83480000
C       -1.22120000      -2.12870000       0.16450000
N        0.06300000      -2.64250000      -0.23550000
C        0.77190000      -3.46910000       0.74030000
C        0.14740000      -4.08400000      -0.46330000
H        1.43620000       0.77350000      -0.70340000
H        0.85220000      -0.85710000      -0.89160000
H       -2.09030000      -0.34500000       1.15180000
H       -3.09200000      -1.47550000      -0.86550000
H       -1.54620000      -1.16430000      -1.79400000
H       -1.77990000      -2.75760000       0.86230000
H        1.84650000      -3.32300000       0.79130000
H        0.28800000      -3.64010000       1.69940000
H       -0.75750000      -4.66890000      -0.31410000
H        0.75830000      -4.39330000      -1.30590000
