15
Properties=species:S:1:pos:R:3 gdb_99565=T pbc="F F F"
C        0.18290000       1.34650000       0.18220000
O       -0.07760000      -0.03150000      -0.05880000
C        0.57240000      -0.57100000      -1.17970000
C        2.03850000      -0.63210000      -0.99190000
N        3.18430000      -0.64710000      -0.84850000
C       -0.01150000      -1.99730000      -1.34710000
O        0.12640000      -2.74220000      -0.17040000
C       -1.42350000      -1.88830000      -1.78130000
N       -2.52360000      -1.80960000      -2.12340000
H        1.24660000       1.52100000       0.38470000
H       -0.13040000       1.95920000      -0.67330000
H       -0.40460000       1.62220000       1.05870000
H        0.36820000       0.01810000      -2.08710000
H        0.54790000      -2.52230000      -2.12770000
H       -0.22100000      -2.19930000       0.55050000
