15
Properties=species:S:1:pos:R:3 gdb_47973=T pbc="F F F"
O       -0.55260000       0.73230000      -0.63390000
C        0.23400000       0.93490000       0.26200000
C        1.39820000       1.77510000       0.14560000
C        2.38350000       2.47250000       0.08390000
C        3.53520000       3.30740000      -0.04040000
C        4.79370000       3.11880000      -0.94160000
C        5.02740000       4.30650000       0.01940000
C        3.61280000       4.84390000      -0.29500000
O        4.44870000       3.49750000       1.12100000
H        0.10990000       0.47510000       1.26300000
H        5.37260000       2.22140000      -0.72490000
H        4.68460000       3.32230000      -2.00890000
H        5.94330000       4.85370000       0.23230000
H        3.40010000       5.19880000      -1.30560000
H        3.16000000       5.45350000       0.48650000
