18
Properties=species:S:1:pos:R:3 gdb_90207=T pbc="F F F"
C       -0.48360000       1.38270000      -0.05350000
C        0.06270000      -0.02720000       0.02470000
O        1.21470000      -0.25330000      -0.89920000
C        2.08430000      -0.33370000       0.23610000
C        2.78640000       0.79760000       1.00270000
C        2.19190000      -0.12780000       2.09360000
C        2.49290000      -1.45200000       1.26600000
N        1.11210000      -1.97870000       1.44760000
C        0.93190000      -0.49650000       1.22470000
H        0.27280000       2.13260000       0.18430000
H       -0.85490000       1.58030000      -1.06370000
H       -1.31640000       1.49310000       0.64890000
H       -0.72450000      -0.75570000      -0.19910000
H        3.87710000       0.84760000       0.94430000
H        2.35120000       1.79620000       0.93260000
H        2.26670000      -0.04110000       3.17900000
H        3.38950000      -2.07650000       1.34230000
H        0.84270000      -2.48410000       0.59790000
