11
Properties=species:S:1:pos:R:3 gdb_21094=T pbc="F F F"
C       -0.10430000       1.42420000      -0.01690000
N        0.02910000      -0.02750000       0.01020000
N        0.66900000      -0.61660000      -1.02600000
N        0.72130000      -1.88080000      -1.03920000
C       -0.02520000      -2.56470000      -0.04410000
O       -0.53150000      -3.63370000      -0.23760000
N       -0.07490000      -1.91200000       1.21560000
N       -0.11830000      -0.64740000       1.20360000
H        0.64790000       1.82390000      -0.69670000
H       -1.10190000       1.70120000      -0.36680000
H        0.04810000       1.80020000       0.99460000
