19
Properties=species:S:1:pos:R:3 gdb_1483=T pbc="F F F"
C        0.08640000       1.55440000       0.09300000
C       -0.02370000       0.02840000       0.01750000
C       -1.46290000      -0.50850000      -0.09320000
C       -2.17210000      -0.04170000      -1.37320000
C       -1.46630000      -2.05030000      -0.00060000
C       -2.85570000      -2.61680000       0.17550000
O       -3.36330000      -3.45550000      -0.52360000
H        1.12550000       1.86050000       0.24860000
H       -0.26220000       2.03780000      -0.82440000
H       -0.50480000       1.95330000       0.92520000
H        0.56020000      -0.34080000      -0.83670000
H        0.44100000      -0.40570000       0.91200000
H       -2.02710000      -0.12410000       0.77060000
H       -1.61820000      -0.36450000      -2.26270000
H       -3.18120000      -0.45970000      -1.44720000
H       -2.26360000       1.04690000      -1.41080000
H       -1.00860000      -2.50680000      -0.88430000
H       -0.88330000      -2.35620000       0.88060000
H       -3.41190000      -2.18540000       1.04310000
