21
Properties=species:S:1:pos:R:3 gdb_106467=T pbc="F F F"
O       -0.04240000       1.42230000      -0.16940000
C        0.00950000       0.01860000       0.05640000
C       -1.40170000      -0.52680000       0.00730000
C       -2.14650000      -0.53240000      -1.36390000
C       -2.85910000      -1.82250000      -0.85380000
C       -1.57960000      -2.07590000       0.00250000
C       -3.97840000      -1.40720000       0.07770000
C       -3.70910000      -0.48790000       1.00470000
C       -2.31670000       0.09310000       1.08570000
H        0.85290000       1.76920000      -0.12260000
H        0.62030000      -0.48190000      -0.71260000
H        0.46090000      -0.20970000       1.03740000
H       -2.77310000       0.32520000      -1.61670000
H       -1.45280000      -0.74220000      -2.18410000
H       -3.15980000      -2.57960000      -1.57920000
H       -0.78970000      -2.56300000      -0.57820000
H       -1.70550000      -2.58630000       0.96100000
H       -4.96220000      -1.85440000      -0.02640000
H       -4.45900000      -0.13780000       1.70830000
H       -1.88740000      -0.08620000       2.08330000
H       -2.33980000       1.18260000       0.96200000
