20
Properties=species:S:1:pos:R:3 gdb_72743=T pbc="F F F"
C        0.22100000       1.55000000      -0.14920000
C        0.10060000       0.06810000       0.08730000
C        0.71680000      -0.95680000      -0.90190000
N        1.22100000      -1.79820000       0.23470000
C        2.61130000      -1.45220000       0.68890000
C        2.05260000      -0.68670000       1.92170000
C        0.69530000      -0.79720000       1.23710000
C       -0.73910000      -0.98020000       1.70550000
O       -1.23520000      -0.32090000       0.51100000
H        1.25280000       1.83100000      -0.38360000
H       -0.41060000       1.84610000      -0.99500000
H       -0.10790000       2.11390000       0.72870000
H       -0.01730000      -1.47550000      -1.52490000
H        1.51740000      -0.56150000      -1.53930000
H        3.22330000      -2.33370000       0.89810000
H        3.15370000      -0.81170000      -0.01770000
H        2.10670000      -1.26770000       2.84630000
H        2.43490000       0.31790000       2.11580000
H       -1.08380000      -2.01670000       1.79050000
H       -1.01100000      -0.42080000       2.61140000
