10
Properties=species:S:1:pos:R:3 gdb_23793=T pbc="F F F"
F       -0.25300000      -0.10960000      -0.07250000
C       -0.22710000       1.20480000       0.23440000
C       -1.56320000       1.77110000       0.11410000
C       -1.76320000       3.04900000       0.39910000
N       -1.96830000       4.17700000       0.77520000
N        1.00510000       4.75350000      -0.83070000
N        2.07840000       4.53380000      -0.90960000
O        0.79150000       1.74150000       0.54300000
H       -2.38770000       1.15810000      -0.22390000
H       -1.85890000       4.96220000       0.13750000
