21
Properties=species:S:1:pos:R:3 gdb_106835=T pbc="F F F"
C        0.27280000       0.96750000       0.11080000
O       -0.03930000      -0.39340000       0.36280000
C       -1.37110000      -0.70500000       0.17040000
C       -1.94670000      -0.92540000      -1.20390000
C       -1.91950000      -2.07190000      -0.21120000
C       -1.16400000      -3.34680000      -0.44450000
O       -0.65340000      -3.89580000       0.76450000
C       -3.06320000      -1.89440000       0.79980000
C       -2.47820000      -0.49920000       1.21090000
H        1.34590000       1.08620000       0.27640000
H        0.03200000       1.24730000      -0.92400000
H       -0.26880000       1.63980000       0.79060000
H       -2.89060000      -0.47840000      -1.50960000
H       -1.20070000      -0.99390000      -1.99040000
H       -1.82170000      -4.11730000      -0.86370000
H       -0.35930000      -3.17190000      -1.17510000
H       -0.05500000      -3.23760000       1.13520000
H       -4.07400000      -1.89280000       0.37980000
H       -3.01020000      -2.62230000       1.61100000
H       -2.08760000      -0.50430000       2.23120000
H       -3.12480000       0.37440000       1.07970000
