12
Properties=species:S:1:pos:R:3 gdb_132255=T pbc="F F F"
F       -0.01110000       0.05340000       0.00380000
C       -0.01580000       1.37840000       0.01070000
N       -1.19300000       1.95270000       0.02990000
C       -1.20970000       3.29600000       0.03700000
C       -0.05850000       4.08170000       0.02510000
C        1.17450000       3.43100000       0.00470000
C        1.21070000       2.04560000      -0.00290000
C       -2.50360000       3.92700000       0.05820000
N       -3.52500000       4.46910000       0.07510000
H       -0.13460000       5.16120000       0.03170000
H        2.09560000       4.00270000      -0.00520000
H        2.13610000       1.48420000      -0.01860000
