15
Properties=species:S:1:pos:R:3 gdb_25810=T pbc="F F F"
C        0.12870000       1.43670000      -0.02800000
C       -0.04520000      -0.03500000       0.03170000
C       -1.10210000      -0.87080000       0.22480000
N       -0.66420000      -2.18130000       0.17950000
C        0.61430000      -2.08770000      -0.03490000
O        1.06160000      -0.81630000      -0.13590000
C        1.60140000      -3.19620000      -0.17570000
N        1.01850000      -4.41770000      -0.05340000
O        2.78330000      -3.00050000      -0.37600000
H        0.82070000       1.78690000       0.74540000
H        0.53120000       1.75050000      -0.99700000
H       -0.83450000       1.92900000       0.12180000
H       -2.13720000      -0.61770000       0.39150000
H        0.02900000      -4.49580000       0.11310000
H        1.59410000      -5.23820000      -0.13130000
