13
Properties=species:S:1:pos:R:3 gdb_127374=T pbc="F F F"
C        0.00550000       1.46160000       0.00660000
N       -0.02580000      -0.00360000      -0.01080000
C       -0.11760000      -0.67440000      -1.20820000
N       -0.15590000      -1.93790000      -1.39950000
O       -0.09690000      -2.74060000      -0.24510000
C       -0.00400000      -2.22960000       1.02210000
O        0.04230000      -2.97110000       1.95420000
C        0.03750000      -0.70850000       1.18260000
O        0.11940000      -0.18720000       2.26530000
H        0.87210000       1.82900000      -0.54940000
H       -0.90960000       1.86560000      -0.43440000
H        0.07900000       1.77220000       1.04710000
H       -0.16340000      -0.06200000      -2.10220000
