15
Properties=species:S:1:pos:R:3 gdb_15749=T pbc="F F F"
N       -0.17660000       1.27120000       0.36400000
C       -0.03510000       0.05320000       0.08380000
O       -1.15770000      -0.73590000       0.07050000
C       -1.00480000      -2.06930000      -0.23570000
O        0.05490000      -2.58090000      -0.49220000
C       -2.31390000      -2.75190000      -0.20140000
C       -2.52220000      -3.89450000      -1.18580000
C       -2.32310000      -4.20370000       0.25720000
H        0.72960000       1.73670000       0.33840000
H        0.87390000      -0.49710000      -0.15940000
H       -3.15920000      -2.12560000       0.04950000
H       -3.51300000      -3.98940000      -1.61390000
H       -1.69900000      -4.09460000      -1.86130000
H       -1.36540000      -4.61260000       0.55650000
H       -3.17290000      -4.51770000       0.85160000
