20
Properties=species:S:1:pos:R:3 gdb_70456=T pbc="F F F"
C       -0.09490000       1.53360000       0.08120000
C        0.02710000       0.03660000       0.03780000
C       -0.81620000      -0.87880000       0.88870000
C        0.67860000      -0.94310000       1.02500000
C        1.26150000      -1.76740000      -0.12820000
C        0.64750000      -0.74120000      -1.13700000
C       -0.29330000      -1.24130000      -2.24660000
C        0.40370000      -2.05290000      -3.24250000
N        0.97760000      -2.69140000      -4.01640000
H        0.84150000       2.01980000      -0.21570000
H       -0.88290000       1.89340000      -0.59220000
H       -0.34570000       1.87950000       1.08920000
H       -1.34020000      -0.38070000       1.69870000
H       -1.36500000      -1.71930000       0.46830000
H        1.18020000      -0.72510000       1.96030000
H        2.35190000      -1.78430000      -0.16410000
H        0.89680000      -2.79770000      -0.20340000
H        1.44470000      -0.15050000      -1.59770000
H       -1.10740000      -1.83910000      -1.82240000
H       -0.75950000      -0.39000000      -2.75710000
