19
Properties=species:S:1:pos:R:3 gdb_117013=T pbc="F F F"
C        0.01350000       1.52440000      -0.17360000
C        0.02590000       0.01490000      -0.02860000
O        0.68920000      -0.52590000      -1.18990000
C        0.78260000      -1.86910000      -1.22940000
O        0.35490000      -2.60700000      -0.37420000
C        1.45920000      -2.30620000      -2.42610000
C        2.01650000      -2.73470000      -3.40530000
C        2.68540000      -3.26760000      -4.58390000
C        2.60720000      -4.80160000      -4.68820000
H        1.03160000       1.91900000      -0.23240000
H       -0.52480000       1.82500000      -1.07670000
H       -0.48270000       1.97530000       0.69090000
H        0.56310000      -0.30830000       0.86860000
H       -0.98470000      -0.40170000       0.02820000
H        2.24690000      -2.80790000      -5.47880000
H        3.73510000      -2.94700000      -4.56710000
H        3.12460000      -5.14490000      -5.58850000
H        3.07240000      -5.27430000      -3.81950000
H        1.56760000      -5.13500000      -4.73810000
