15
Properties=species:S:1:pos:R:3 gdb_35452=T pbc="F F F"
C       -0.02830000      -1.22570000      -0.05330000
C        0.00590000      -0.02660000       0.01840000
C        0.05260000       1.42130000       0.09210000
O       -0.13560000       1.96150000       1.43680000
C        1.07630000       2.70210000       1.33870000
C        2.25180000       1.80060000       1.19590000
C        1.41950000       2.13460000      -0.03820000
C        1.92400000       2.72400000      -1.22430000
C        2.33640000       3.21330000      -2.24380000
H       -0.06060000      -2.28560000      -0.11720000
H       -0.68470000       1.87200000      -0.58090000
H        1.08570000       3.71820000       1.71370000
H        3.22240000       2.28470000       1.20280000
H        2.21610000       0.79840000       1.61220000
H        2.70260000       3.64720000      -3.14090000
