16
Properties=species:S:1:pos:R:3 gdb_15378=T pbc="F F F"
O       -0.14480000       1.31620000      -0.68690000
C        0.08640000       0.16230000       0.10200000
C       -1.21530000      -0.51690000       0.44840000
O       -1.85480000      -1.22580000      -0.62830000
C       -1.43350000      -1.97160000       0.52060000
C       -0.37290000      -3.03240000       0.30750000
C       -0.94070000      -4.23460000      -0.42840000
O       -0.82630000      -5.37390000      -0.05900000
H       -0.61690000       1.02710000      -1.47610000
H        0.76820000      -0.53630000      -0.40160000
H        0.57720000       0.50950000       1.01780000
H       -1.90100000       0.11540000       1.01490000
H       -2.26380000      -2.30110000       1.14860000
H        0.44230000      -2.63130000      -0.30510000
H        0.04010000      -3.37060000       1.26260000
H       -1.48280000      -3.98000000      -1.36570000
