20
Properties=species:S:1:pos:R:3 gdb_31558=T pbc="F F F"
C        0.61600000       0.59920000      -0.26570000
O       -0.71420000       0.93020000       0.09070000
C       -1.59470000      -0.09220000       0.00240000
C       -1.49260000      -1.41120000      -0.36250000
C       -2.81070000      -1.97600000      -0.24270000
C       -3.16300000      -3.40170000      -0.54310000
C       -3.65650000      -0.98050000       0.18870000
C       -5.11810000      -0.96500000       0.48940000
N       -2.89280000       0.17210000       0.33470000
H        1.20590000       1.50930000      -0.14790000
H        1.01590000      -0.18640000       0.38810000
H        0.67200000       0.25610000      -1.30680000
H       -0.60040000      -1.92700000      -0.67850000
H       -2.60000000      -4.10040000       0.08810000
H       -4.22590000      -3.60090000      -0.37980000
H       -2.93870000      -3.66420000      -1.58440000
H       -5.32610000      -0.69330000       1.53300000
H       -5.66670000      -0.25550000      -0.14470000
H       -5.55150000      -1.95280000       0.31960000
H       -3.22360000       1.07190000       0.63640000
