15
Properties=species:S:1:pos:R:3 gdb_116993=T pbc="F F F"
C        0.63530000       0.93420000       0.31410000
N       -0.40160000       0.35920000      -0.54310000
C        0.10330000      -0.48600000      -1.59460000
C        0.58280000      -1.87030000      -1.13790000
O        0.38940000      -2.30120000      -0.02350000
C        1.26010000      -2.66940000      -2.15110000
C        1.82500000      -3.29940000      -3.01670000
C        2.46300000      -4.01680000      -3.98660000
N        3.00580000      -4.62330000      -4.81530000
H        1.28490000       0.19300000       0.80340000
H        1.26490000       1.60370000      -0.28260000
H        0.15800000       1.53610000       1.09190000
H       -1.05150000      -0.17340000       0.02620000
H       -0.67350000      -0.66710000      -2.35390000
H        0.92250000       0.01530000      -2.12540000
