19
Properties=species:S:1:pos:R:3 gdb_114110=T pbc="F F F"
O        0.07390000       1.24670000      -0.40170000
C        0.04590000      -0.13740000      -0.07300000
C       -1.40590000      -0.53600000       0.09280000
C       -2.32180000      -0.49060000      -1.17350000
C       -2.69380000      -1.98340000      -0.96570000
O       -4.02330000      -2.38440000      -1.02840000
C       -1.72180000      -2.98290000      -1.60230000
O       -0.81760000      -2.89800000      -0.47480000
C       -1.71600000      -2.04430000       0.26620000
H        0.98410000       1.48880000      -0.59530000
H        0.50710000      -0.74990000      -0.85950000
H        0.59430000      -0.33860000       0.86180000
H       -1.84520000       0.04450000       0.91080000
H       -3.17740000       0.18310000      -1.06560000
H       -1.82410000      -0.25430000      -2.11790000
H       -4.57840000      -1.67160000      -0.69610000
H       -2.15300000      -3.98700000      -1.69700000
H       -1.24780000      -2.69190000      -2.54730000
H       -1.93820000      -2.43650000       1.26210000
