17
Properties=species:S:1:pos:R:3 gdb_126352=T pbc="F F F"
C        0.08300000       1.55470000       0.00800000
C       -0.04550000       0.03400000       0.00350000
C       -1.46280000      -0.48350000       0.01300000
N       -2.45270000       0.34870000       0.02300000
C       -3.75820000      -0.14150000       0.03160000
N       -4.75260000       0.65830000       0.04170000
N       -3.86720000      -1.55030000       0.02820000
N       -2.86250000      -2.42610000       0.01800000
C       -1.67000000      -1.91850000       0.01040000
H        1.13750000       1.84440000       0.00050000
H       -0.40650000       1.99200000      -0.86520000
H       -0.39220000       1.98560000       0.89240000
H        0.45970000      -0.39700000      -0.87310000
H        0.47370000      -0.40350000       0.86860000
H       -5.63910000       0.15220000       0.04710000
H       -4.78520000      -1.97050000       0.03410000
H       -0.84190000      -2.61780000       0.00200000
