23
Properties=species:S:1:pos:R:3 gdb_122651=T pbc="F F F"
C        0.07410000       1.55200000       0.09300000
C        0.08360000       0.02190000       0.03400000
C        0.67310000      -0.52450000      -1.27020000
C        0.69080000      -2.05480000      -1.33540000
C        1.31140000      -2.59230000      -2.63080000
O        2.66990000      -2.14790000      -2.75400000
C        3.54770000      -3.25530000      -2.92830000
C        2.66530000      -4.47000000      -2.85950000
C        1.40210000      -4.09390000      -2.70290000
H        1.08850000       1.95630000       0.00370000
H       -0.52150000       1.97590000      -0.72340000
H       -0.34780000       1.91490000       1.03560000
H        0.65650000      -0.37370000       0.88330000
H       -0.94020000      -0.35650000       0.15870000
H        0.09900000      -0.13170000      -2.12160000
H        1.69790000      -0.15650000      -1.39720000
H        1.25490000      -2.46220000      -0.48680000
H       -0.33330000      -2.44520000      -1.25400000
H        0.73470000      -2.19110000      -3.48350000
H        4.07050000      -3.17440000      -3.89560000
H        4.32140000      -3.24800000      -2.14440000
H        3.04140000      -5.48220000      -2.93830000
H        0.53420000      -4.73700000      -2.62790000
