20
Properties=species:S:1:pos:R:3 gdb_73252=T pbc="F F F"
C       -0.01830000       1.52690000      -0.01590000
C        0.00630000       0.00670000       0.03310000
C       -1.30580000      -0.72140000       0.47470000
C       -0.45890000      -1.67200000       1.36130000
C        0.73040000      -0.67960000       1.23780000
C        2.11110000      -1.20110000       0.90140000
O        2.13660000      -1.88920000      -0.35850000
C        1.35860000      -1.36380000      -1.33670000
N        0.42770000      -0.51080000      -1.26540000
H        0.98930000       1.92930000      -0.17000000
H       -0.64270000       1.86810000      -0.84710000
H       -0.41520000       1.94160000       0.91650000
H       -1.94840000      -0.06390000       1.06730000
H       -1.89030000      -1.16350000      -0.33390000
H       -0.82500000      -1.87140000       2.37050000
H       -0.24990000      -2.62740000       0.87270000
H        0.79590000      -0.01530000       2.10500000
H        2.82640000      -0.36890000       0.84600000
H        2.48000000      -1.92110000       1.63770000
H        1.63130000      -1.80400000      -2.29490000
