22
Properties=species:S:1:pos:R:3 gdb_92709=T pbc="F F F"
C       -0.80760000       1.12080000      -0.02610000
C        0.12780000      -0.08560000      -0.04390000
C        1.23050000      -0.02870000      -1.13410000
C        2.38560000      -0.76630000      -0.50270000
C        2.22100000      -0.95760000       0.80900000
C        3.15540000      -1.62400000       1.76670000
C        0.91150000      -0.37740000       1.24970000
C        0.77460000       0.43230000       2.49570000
N        0.25490000      -0.94570000       2.44080000
H       -0.25410000       2.05220000       0.13350000
H       -1.34140000       1.20780000      -0.97820000
H       -1.56570000       1.03910000       0.76190000
H       -0.47260000      -0.98530000      -0.24030000
H        0.89860000      -0.47250000      -2.07990000
H        1.50410000       1.01240000      -1.36290000
H        3.26340000      -1.06930000      -1.06380000
H        4.01090000      -2.06340000       1.24730000
H        3.54160000      -0.91470000       2.50980000
H        2.63520000      -2.40790000       2.32700000
H        1.62660000       0.57180000       3.15600000
H        0.07030000       1.25920000       2.49660000
H       -0.75540000      -0.92700000       2.31330000
