18
Properties=species:S:1:pos:R:3 gdb_35552=T pbc="F F F"
N        0.08940000      -1.14770000       0.59450000
C        0.08500000      -0.01720000       0.35220000
C        0.02840000       1.40820000       0.02040000
C       -0.75290000       2.23300000       1.08860000
C        0.29250000       2.67720000       2.12150000
C        0.83120000       1.59370000       3.08000000
O        2.03760000       1.43950000       2.29820000
C        1.67610000       2.53150000       1.42770000
C        1.42990000       2.08010000      -0.00850000
H       -0.45910000       1.48080000      -0.95660000
H       -1.17840000       3.11190000       0.59340000
H       -1.58070000       1.66850000       1.52500000
H        0.04860000       3.63390000       2.58340000
H        1.05170000       1.95050000       4.09360000
H        0.26050000       0.66060000       3.13940000
H        2.38750000       3.36120000       1.50400000
H        2.21770000       1.41680000      -0.37180000
H        1.38610000       2.95540000      -0.66640000
