18
Properties=species:S:1:pos:R:3 gdb_11531=T pbc="F F F"
O        0.27630000       1.53640000      -0.19910000
C        0.05300000       0.16020000      -0.05820000
C        0.60140000      -0.63780000      -1.25910000
C       -0.11530000      -0.32090000      -2.55370000
C        0.25960000       0.89640000      -3.35650000
C        0.59850000      -0.47900000      -3.87400000
C        0.66380000      -0.34030000       1.23390000
O        1.24850000       0.39600000       1.99180000
H        0.75130000       1.80530000       0.60340000
H       -1.03210000      -0.04810000       0.01830000
H        1.67030000      -0.41190000      -1.35710000
H        0.51590000      -1.71150000      -1.04040000
H       -1.17100000      -0.58330000      -2.54860000
H       -0.53190000       1.45180000      -3.84710000
H        1.06270000       1.51470000      -2.97380000
H        1.63830000      -0.78940000      -3.85280000
H        0.03910000      -0.86850000      -4.71750000
H        0.54600000      -1.42290000       1.44760000
