23
Properties=species:S:1:pos:R:3 gdb_94543=T pbc="F F F"
C       -1.08920000       1.17550000       0.12800000
C       -0.19820000      -0.05250000       0.00330000
C        1.10150000       0.04140000      -0.82090000
O        1.84420000      -0.66390000       0.19500000
C        0.75240000      -0.56140000       1.13540000
C        1.12080000       0.32020000       2.33950000
C       -0.03430000       0.36730000       3.35120000
C        2.39320000      -0.24360000       2.98840000
O        1.38850000       1.63090000       1.82660000
H       -0.53770000       2.02790000       0.52540000
H       -1.48800000       1.44200000      -0.85790000
H       -1.94930000       0.98330000       0.77850000
H       -0.79810000      -0.89880000      -0.34600000
H        1.12280000      -0.48270000      -1.78330000
H        1.47420000       1.06510000      -0.95130000
H        0.48580000      -1.55230000       1.52820000
H       -0.28350000      -0.63380000       3.71790000
H        0.25030000       0.97530000       4.21730000
H       -0.92990000       0.80910000       2.90930000
H        3.19510000      -0.28710000       2.24930000
H        2.70760000       0.39460000       3.82340000
H        2.22710000      -1.24940000       3.38760000
H        1.80420000       2.14290000       2.52770000
