14
Properties=species:S:1:pos:R:3 gdb_64643=T pbc="F F F"
O       -0.01270000       1.45890000      -0.03080000
C        0.06390000       0.04690000       0.02460000
C        0.66510000      -0.51270000       1.29490000
C       -0.19210000      -1.26810000       1.98150000
C       -1.53910000      -1.39440000       1.32810000
C       -1.42450000      -0.48410000       0.10520000
O       -2.28630000      -0.17120000      -0.65810000
C        0.72990000      -0.49270000      -1.17330000
N        1.28310000      -0.90820000      -2.09980000
H        0.86290000       1.80840000      -0.23310000
H        1.68810000      -0.29540000       1.57720000
H        0.04000000      -1.75310000       2.92260000
H       -1.76950000      -2.41760000       1.00390000
H       -2.37460000      -1.07650000       1.96250000
