23
Properties=species:S:1:pos:R:3 gdb_94108=T pbc="F F F"
C       -0.24480000       1.54280000       0.04560000
C        0.04630000       0.04420000       0.00960000
C        0.86940000      -0.41650000      -1.21480000
C        1.56590000      -1.73780000      -0.78950000
C        1.30430000      -1.89090000       0.73750000
C        2.49240000      -2.46950000       1.52350000
C        2.79380000      -3.89580000       1.12710000
O        3.84770000      -4.29230000       0.70040000
C        0.87260000      -0.48550000       1.19200000
H        0.68630000       2.12150000       0.06670000
H       -0.81210000       1.85920000      -0.83630000
H       -0.82820000       1.81760000       0.93100000
H       -0.91120000      -0.49670000       0.00440000
H        0.25070000      -0.53250000      -2.10920000
H        1.62060000       0.34670000      -1.45030000
H        1.18400000      -2.60100000      -1.34240000
H        2.64100000      -1.69550000      -0.99180000
H        0.44660000      -2.56340000       0.87820000
H        3.39510000      -1.86690000       1.38070000
H        2.24610000      -2.47270000       2.59570000
H        1.93090000      -4.59370000       1.25320000
H        1.75770000       0.15070000       1.33610000
H        0.32170000      -0.49530000       2.13840000
