18
Properties=species:S:1:pos:R:3 gdb_99229=T pbc="F F F"
C        1.15170000       0.46650000      -0.31100000
N        0.68160000      -0.70620000       0.39750000
C       -0.01340000      -0.62400000       1.56010000
O       -0.35100000       0.41750000       2.09900000
C       -0.36400000      -1.99580000       2.17080000
N        0.78330000      -2.75050000       2.65770000
C        1.57040000      -3.47150000       1.79770000
N        2.66040000      -4.08280000       2.39010000
O        1.34590000      -3.55670000       0.59560000
H        0.78050000       1.34510000       0.21820000
H        2.24710000       0.50480000      -0.34260000
H        0.77610000       0.48270000      -1.34000000
H        0.93580000      -1.63330000       0.07420000
H       -1.04010000      -1.80850000       3.00580000
H       -0.87360000      -2.61480000       1.42780000
H        1.18130000      -2.46160000       3.53720000
H        2.57720000      -4.37850000       3.35070000
H        3.11450000      -4.74890000       1.78450000
