19
Properties=species:S:1:pos:R:3 gdb_63891=T pbc="F F F"
C       -0.09620000       1.57150000      -0.01660000
C        0.00560000       0.04990000       0.02880000
C       -1.36980000      -0.61000000      -0.08930000
O        0.84060000      -0.41720000      -1.06260000
C        1.84870000      -1.23080000      -0.42330000
O        1.17050000      -1.81040000       0.66920000
C        0.80330000      -0.54540000       1.25670000
C        2.14570000       0.16790000       1.32680000
C        2.82150000      -0.27240000       0.26470000
H        0.89100000       2.03610000      -0.00190000
H       -0.60460000       1.88160000      -0.93450000
H       -0.67800000       1.94780000       0.83210000
H       -1.81720000      -0.36620000      -1.05730000
H       -1.27760000      -1.69460000      -0.01260000
H       -2.04230000      -0.25140000       0.69790000
H        2.22020000      -1.97490000      -1.12500000
H        0.23000000      -0.68340000       2.17130000
H        2.40870000       0.94700000       2.02810000
H        3.77610000       0.04930000      -0.12670000
