17
Properties=species:S:1:pos:R:3 gdb_117311=T pbc="F F F"
C        0.01650000       1.52930000       0.30700000
C        0.04610000       0.04310000       0.00750000
O        0.63650000      -0.61670000       1.14430000
C        0.74600000      -1.96380000       1.02990000
O        0.39150000      -2.61030000       0.08480000
N        1.35730000      -2.42880000       2.18800000
C        1.51080000      -3.77630000       2.55730000
N        2.25870000      -3.89630000       3.72010000
O        1.01690000      -4.70970000       1.97910000
H        1.02650000       1.91670000       0.46840000
H       -0.42770000       2.06690000      -0.53570000
H       -0.57960000       1.73680000       1.20020000
H       -0.95710000      -0.36210000      -0.15560000
H        0.64040000      -0.18400000      -0.88300000
H        1.58300000      -1.71750000       2.86570000
H        3.00080000      -3.23290000       3.88480000
H        2.50470000      -4.85350000       3.92330000
