15
Properties=species:S:1:pos:R:3 gdb_46830=T pbc="F F F"
O       -0.03690000       0.02970000       0.26170000
C        0.00200000       1.20030000       0.03530000
O       -1.12520000       1.95020000      -0.15800000
C       -0.82100000       3.25490000      -0.67620000
C        0.66710000       3.46390000      -0.46930000
C        1.16540000       3.26680000       0.92100000
C        1.21410000       2.09830000      -0.07190000
C        2.46040000       1.55370000      -0.50580000
C        3.51240000       1.10370000      -0.87270000
H       -1.08740000       3.28030000      -1.73850000
H       -1.43910000       3.98040000      -0.13870000
H        1.21180000       4.09470000      -1.15950000
H        2.12940000       3.68940000       1.17570000
H        0.45420000       3.20510000       1.73870000
H        4.43760000       0.69300000      -1.19380000
