19
Properties=species:S:1:pos:R:3 gdb_36658=T pbc="F F F"
N        0.73840000       0.05800000       1.60410000
C        0.38440000       0.70950000       0.71690000
C       -0.02650000       1.53250000      -0.44330000
N        0.97540000       2.45050000      -0.96010000
C        1.34390000       3.52250000      -0.06750000
C        2.30050000       3.46380000       1.10070000
C        3.47880000       2.52560000       0.81190000
C        3.81460000       3.35530000      -0.46910000
C        2.62600000       4.28050000      -0.17490000
H       -0.33740000       0.85150000      -1.24280000
H       -0.91580000       2.10470000      -0.15490000
H        1.78640000       1.94540000      -1.29520000
H        0.49040000       4.17020000       0.12720000
H        2.01320000       3.81880000       2.08350000
H        4.26760000       2.59920000       1.56260000
H        3.23030000       1.46820000       0.68330000
H        4.77140000       3.87350000      -0.38020000
H        3.80880000       2.83380000      -1.43370000
H        2.63280000       5.35420000      -0.32390000
