19
Properties=species:S:1:pos:R:3 gdb_104755=T pbc="F F F"
C       -1.56020000      -0.45060000      -0.39390000
O       -0.18430000      -0.15820000      -0.16310000
C        0.70440000      -0.69430000      -1.09980000
C        0.63480000      -0.02010000      -2.45500000
O        0.84290000       1.37430000      -2.33700000
C        2.02430000      -1.09230000      -0.53570000
C        1.06220000      -2.17930000      -1.02360000
C        0.43470000      -3.05490000      -0.07970000
C       -0.08170000      -3.81430000       0.69800000
H       -1.93840000       0.03780000      -1.30150000
H       -1.72920000      -1.52980000      -0.46510000
H       -2.10420000      -0.05710000       0.46720000
H        1.41810000      -0.41550000      -3.10970000
H       -0.33170000      -0.23940000      -2.93730000
H        0.37340000       1.64910000      -1.54010000
H        2.91940000      -0.90670000      -1.11810000
H        2.13480000      -1.00540000       0.53820000
H        1.31260000      -2.64340000      -1.97430000
H       -0.53740000      -4.47750000       1.39040000
