19
Properties=species:S:1:pos:R:3 gdb_36853=T pbc="F F F"
C       -0.12640000       1.59910000       0.13530000
C       -0.20020000       0.10740000       0.38030000
C       -1.24790000      -0.73490000      -0.20670000
O        0.07310000      -0.72430000      -0.75300000
C        1.29370000       2.06520000      -0.02720000
C        2.20740000       2.47710000       1.11650000
C        1.94970000       3.42660000      -0.01390000
O        2.79190000       3.12770000      -1.12750000
C        2.16180000       1.82190000      -1.26200000
H       -0.70710000       1.83620000      -0.76490000
H       -0.60000000       2.12450000       0.97440000
H        0.27590000      -0.23750000       1.29980000
H       -1.54270000      -1.66020000       0.28600000
H       -2.01510000      -0.27810000      -0.83100000
H        1.69130000       2.70470000       2.04510000
H        3.19710000       2.04270000       1.23170000
H        1.56310000       4.43570000       0.07910000
H        2.88470000       0.99940000      -1.22790000
H        1.58460000       1.76830000      -2.19180000
