17
Properties=species:S:1:pos:R:3 gdb_30762=T pbc="F F F"
N        0.09780000       1.29510000       0.41480000
C        0.42660000      -0.03750000       0.22410000
C        0.40270000      -1.11010000       1.04030000
O        0.88850000      -2.27410000       0.46170000
C        1.26690000      -1.95590000      -0.82330000
C        1.79050000      -2.82880000      -1.67570000
N        0.45180000      -4.10890000       3.13500000
H        0.69500000      -3.81790000       2.19140000
H       -0.53020000      -3.87930000       3.26150000
H        0.96970000      -3.50110000       3.76390000
C        0.98110000      -0.50550000      -1.05530000
O        1.15030000       0.14240000      -2.07110000
H        0.01610000       1.77640000      -0.47310000
H       -0.69760000       1.47220000       1.01100000
H        0.07200000      -1.23840000       2.05970000
H        1.96090000      -3.86520000      -1.41320000
H        2.05350000      -2.48090000      -2.66670000
