16
Properties=species:S:1:pos:R:3 gdb_34156=T pbc="F F F"
C        0.03720000      -1.16720000      -0.00340000
C        0.02070000       0.03600000       0.02110000
C       -0.00160000       1.46650000       0.05370000
C       -0.49150000       2.30380000       1.27160000
C        0.32810000       3.42650000       0.62450000
C        1.29400000       2.40390000      -0.04400000
C        0.82820000       2.92160000      -1.42450000
C       -0.47700000       2.26600000      -1.19100000
N       -0.27190000       3.68430000      -0.75460000
H        0.05120000      -2.22870000      -0.02390000
H       -1.56740000       2.44430000       1.40220000
H       -0.03220000       1.95270000       2.20000000
H        0.62210000       4.33800000       1.14100000
H        2.27830000       2.09790000       0.29820000
H        1.33040000       3.25810000      -2.32270000
H       -1.29820000       2.04060000      -1.85890000
