20
Properties=species:S:1:pos:R:3 gdb_108020=T pbc="F F F"
C        0.08730000       1.44840000      -0.23750000
C       -0.08590000      -0.01710000       0.18310000
C       -1.51740000      -0.50000000       0.14490000
C       -2.62810000       0.13150000       0.96900000
C       -3.77980000      -0.72440000       0.49860000
C       -3.32340000      -2.09900000       0.17230000
C       -1.80940000      -1.98740000      -0.05440000
C       -2.12400000      -0.99850000      -1.14520000
N       -3.61780000      -1.13100000      -0.93580000
H        1.14340000       1.73450000      -0.22550000
H       -0.29700000       1.61670000      -1.24880000
H       -0.44630000       2.12470000       0.43780000
H        0.51910000      -0.65590000      -0.47260000
H        0.31790000      -0.15730000       1.19460000
H       -2.46200000       0.03810000       2.04850000
H       -2.77610000       1.18990000       0.72930000
H       -4.80330000      -0.52780000       0.79760000
H       -3.89810000      -3.00870000       0.30250000
H       -1.06650000      -2.77080000       0.00080000
H       -1.72590000      -0.85350000      -2.14120000
