20
Properties=species:S:1:pos:R:3 gdb_126570=T pbc="F F F"
C       -0.21130000       1.50740000       0.00030000
C       -0.23670000      -0.00850000      -0.20700000
C        0.94030000      -0.50550000      -1.06640000
C        0.92720000      -1.98830000      -1.28030000
N        1.85120000      -2.74090000      -0.73000000
O        1.54630000      -4.05210000      -1.10280000
C        0.44240000      -4.05070000      -1.87190000
C       -0.03170000      -5.37000000      -2.37010000
C       -0.00250000      -2.77510000      -2.02390000
H        0.71160000       1.82260000       0.49910000
H       -0.26870000       2.04020000      -0.95560000
H       -1.05300000       1.83740000       0.61670000
H       -0.20650000      -0.51940000       0.76250000
H       -1.18250000      -0.30250000      -0.67890000
H        0.91590000       0.00050000      -2.04030000
H        1.88800000      -0.23680000      -0.58900000
H       -0.26570000      -6.04210000      -1.53790000
H       -0.92970000      -5.24340000      -2.97750000
H        0.73590000      -5.85770000      -2.97990000
H       -0.86040000      -2.44080000      -2.58390000
