13
Properties=species:S:1:pos:R:3 gdb_33583=T pbc="F F F"
N       -0.12930000      -1.22680000      -0.01980000
C       -0.06430000      -0.07480000      -0.00540000
C        0.00750000       1.41110000       0.05080000
O       -0.65550000       1.90470000       1.18870000
C        0.35400000       2.34750000       2.10890000
C        1.48390000       2.75090000       1.17230000
O        1.36250000       1.78160000       0.11990000
C       -0.64380000       1.99430000      -1.15430000
N       -1.12470000       2.46490000      -2.09170000
H       -0.06740000       3.17010000       2.68780000
H        0.64640000       1.52920000       2.77700000
H        1.34720000       3.76360000       0.77560000
H        2.48220000       2.64870000       1.59950000
