21
Properties=species:S:1:pos:R:3 gdb_119070=T pbc="F F F"
C       -0.02640000       1.42050000      -0.10750000
O        0.44740000       0.09070000      -0.12680000
C       -0.04220000      -0.66000000      -1.22830000
C        0.39640000      -2.10060000      -1.06390000
C        0.00220000      -2.73770000       0.26170000
O        0.81350000      -2.29410000       1.33220000
O        0.17220000      -2.90790000      -2.22730000
C        1.52950000      -2.67750000      -1.80660000
C        2.44050000      -1.93910000      -2.75130000
H        0.28100000       1.96760000      -1.01100000
H       -1.12370000       1.45740000      -0.03580000
H        0.40610000       1.90920000       0.76810000
H       -1.14470000      -0.62830000      -1.24610000
H        0.31210000      -0.23540000      -2.17670000
H       -1.06750000      -2.54660000       0.45430000
H        0.13050000      -3.82120000       0.17990000
H        0.80300000      -1.32900000       1.28970000
H        1.98670000      -3.55440000      -1.34380000
H        1.95390000      -1.07390000      -3.20550000
H        3.33650000      -1.59970000      -2.22080000
H        2.76090000      -2.60530000      -3.55900000
