23
Properties=species:S:1:pos:R:3 gdb_60383=T pbc="F F F"
C       -0.52180000       1.34150000      -0.03430000
C        0.09090000      -0.06110000       0.00300000
C        1.17790000      -0.24200000      -1.05040000
O        0.69900000      -0.33820000       1.26210000
C       -0.19280000      -0.55780000       2.34380000
C        0.60570000      -1.22540000       3.43360000
O        1.20590000      -2.41820000       3.01310000
C        1.33400000      -0.38650000       4.45680000
C        0.12000000      -1.21110000       4.84600000
H        0.24690000       2.09540000       0.16430000
H       -0.95700000       1.54160000      -1.01860000
H       -1.31660000       1.45640000       0.70830000
H       -0.70740000      -0.80270000      -0.17100000
H        1.98820000       0.47580000      -0.88830000
H        1.59760000      -1.25040000      -0.99950000
H        0.77260000      -0.08500000      -2.05430000
H       -0.63120000       0.38260000       2.70820000
H       -1.01450000      -1.21900000       2.02320000
H        1.66270000      -2.19460000       2.19200000
H        2.30280000      -0.75120000       4.77730000
H        1.23720000       0.69330000       4.41720000
H       -0.80790000      -0.69800000       5.07640000
H        0.29300000      -2.11550000       5.41790000
