17
Properties=species:S:1:pos:R:3 gdb_82646=T pbc="F F F"
C        0.04270000       1.62390000      -0.03480000
C        0.05320000       0.10330000      -0.01830000
C        1.12620000      -0.65120000      -0.86220000
O        2.39940000      -0.10190000      -0.42200000
C        2.18750000      -0.77730000       0.81400000
C        0.65900000      -0.66590000       1.16060000
O        0.17720000      -0.81260000       2.44080000
C        1.19360000      -1.76670000       0.28030000
O        0.99740000      -3.11490000       0.33600000
H        1.05600000       2.01410000       0.08970000
H       -0.35800000       2.00710000      -0.97950000
H       -0.58510000       2.01910000       0.77160000
H       -0.93270000      -0.31730000      -0.24410000
H        1.04700000      -0.77090000      -1.94090000
H        2.97430000      -0.82590000       1.55580000
H        0.43290000      -0.03960000       2.95630000
H        1.76210000      -3.55420000      -0.05460000
