20
Properties=species:S:1:pos:R:3 gdb_32789=T pbc="F F F"
C        0.01000000       1.62760000      -0.08820000
C        0.03000000       0.09760000      -0.11140000
C       -1.36380000      -0.52620000       0.09860000
C       -1.37490000      -2.02510000       0.06220000
C       -1.34800000      -2.88630000       1.12340000
N       -1.24990000      -2.70240000       2.49930000
O       -1.34820000      -4.17730000       0.71370000
C       -1.37640000      -4.15780000      -0.66060000
C       -1.38600000      -2.87900000      -1.10090000
H        1.01070000       2.04290000      -0.24320000
H       -0.64180000       2.02800000      -0.87320000
H       -0.36150000       2.00610000       0.87110000
H        0.43530000      -0.25560000      -1.06750000
H        0.70910000      -0.28160000       0.66200000
H       -1.76860000      -0.17110000       1.05760000
H       -2.04530000      -0.13460000      -0.66860000
H       -1.52680000      -1.77080000       2.77950000
H       -1.77790000      -3.39430000       3.01820000
H       -1.39060000      -5.12270000      -1.13670000
H       -1.41290000      -2.55800000      -2.13160000
