20
Properties=species:S:1:pos:R:3 gdb_116568=T pbc="F F F"
C       -0.48120000       1.40820000      -0.03210000
C        0.18000000       0.04510000       0.17670000
N        0.77540000      -0.42470000      -1.07190000
C        1.96460000      -0.80570000      -1.08240000
C        2.91900000      -1.33120000      -2.13580000
C        3.89860000      -1.38680000      -0.96850000
C        4.88420000      -2.41670000      -0.54680000
C        5.32570000      -0.98680000      -0.85080000
O        2.89960000      -0.88430000      -0.05130000
H        0.26320000       2.16460000      -0.29980000
H       -1.21600000       1.35790000      -0.84060000
H       -0.98780000       1.73520000       0.88160000
H        0.90980000       0.09800000       0.99530000
H       -0.58520000      -0.68430000       0.47250000
H        2.63610000      -2.29260000      -2.56950000
H        3.15780000      -0.62300000      -2.93170000
H        4.86920000      -2.72080000       0.49400000
H        5.14250000      -3.20330000      -1.24820000
H        5.88610000      -0.79540000      -1.76000000
H        5.59780000      -0.36160000      -0.00750000
