21
Properties=species:S:1:pos:R:3 gdb_106386=T pbc="F F F"
C       -0.02980000       1.35580000       0.12330000
O        0.03760000      -0.04400000      -0.04120000
C        0.72100000      -0.49410000      -1.16270000
C        0.37610000      -0.08860000      -2.65300000
C        1.78540000      -0.72910000      -2.88860000
C        2.18450000      -0.10180000      -1.52400000
C        1.48020000      -2.20660000      -2.56490000
C        1.97280000      -2.82080000      -1.27710000
C        0.68980000      -2.02880000      -1.28380000
H        0.96560000       1.80790000       0.23600000
H       -0.54220000       1.84590000      -0.71650000
H       -0.60090000       1.53880000       1.03650000
H       -0.48610000      -0.57300000      -3.11920000
H        0.35710000       0.99060000      -2.82880000
H        2.36140000      -0.51410000      -3.78740000
H        2.30610000       0.97900000      -1.61690000
H        3.01700000      -0.51190000      -0.95200000
H        1.13950000      -2.84980000      -3.36840000
H        1.84650000      -3.89690000      -1.20280000
H        2.86310000      -2.46250000      -0.77490000
H       -0.25890000      -2.51710000      -1.09450000
