11
Properties=species:S:1:pos:R:3 gdb_21505=T pbc="F F F"
N       -0.05260000       1.32170000       0.00700000
C        0.05260000      -0.02880000       0.00120000
O        1.09880000      -0.64850000      -0.00970000
C       -1.25240000      -0.75640000       0.00890000
N       -2.42420000      -0.17850000       0.02080000
O       -3.33770000      -1.18470000       0.02440000
N       -2.72520000      -2.41370000       0.01430000
C       -1.44690000      -2.16540000       0.00480000
H        0.79050000       1.87110000       0.00280000
H       -0.95030000       1.77650000       0.01670000
H       -0.70840000      -2.95030000      -0.00450000
