18
Properties=species:S:1:pos:R:3 gdb_12555=T pbc="F F F"
C        0.48800000       1.60180000      -0.08580000
C       -0.12300000       0.20020000      -0.08060000
O        0.34270000      -0.43220000      -1.26460000
C       -0.04730000      -1.75770000      -1.46930000
O        0.81680000      -2.67890000      -0.86770000
C        0.56440000      -2.96380000       0.49170000
C        0.44390000      -1.80550000       1.44290000
C        0.16090000      -0.52420000       1.21350000
H        1.57630000       1.53870000       0.00090000
H        0.24260000       2.11040000      -1.02120000
H        0.10310000       2.19560000       0.74800000
H       -1.22340000       0.30470000      -0.15200000
H       -1.08920000      -1.91810000      -1.13630000
H        0.03000000      -1.93400000      -2.54540000
H       -0.35530000      -3.57320000       0.58450000
H        1.39020000      -3.60970000       0.81060000
H        0.55100000      -2.11240000       2.48300000
H        0.05880000       0.12180000       2.08450000
