20
Properties=species:S:1:pos:R:3 gdb_73583=T pbc="F F F"
O       -0.09660000       1.37140000      -0.05910000
C        0.04360000      -0.03400000      -0.00790000
C        0.80720000      -0.64640000      -1.19460000
C       -0.31700000      -1.12950000      -2.13980000
C       -1.40750000      -1.68360000      -1.19000000
C       -1.36200000      -0.72050000       0.00690000
C       -1.05820000      -1.22400000       1.43280000
N        0.17280000      -2.04910000       1.34870000
C        0.27720000      -0.57290000       1.43000000
H        0.78540000       1.75720000      -0.01720000
H        1.48090000       0.07580000      -1.66720000
H        1.39690000      -1.50090000      -0.85190000
H       -0.71530000      -0.27420000      -2.69890000
H        0.02680000      -1.86650000      -2.87190000
H       -2.39030000      -1.73590000      -1.66660000
H       -1.13430000      -2.69150000      -0.86380000
H       -2.14810000       0.03700000       0.00280000
H       -1.76000000      -1.36860000       2.24510000
H        0.35480000      -2.41780000       2.28140000
H        0.82360000      -0.08620000       2.23000000
