17
Properties=species:S:1:pos:R:3 gdb_41065=T pbc="F F F"
C       -0.00960000       1.37720000      -0.35520000
C        1.45000000       1.53230000       0.18040000
C        1.11550000       0.27510000       0.96870000
C        1.60520000      -1.01740000       1.62920000
C        0.26750000      -1.69330000       1.73910000
C       -0.68950000      -0.59810000       1.17770000
C        0.10340000       0.30200000       2.17240000
N        0.79040000      -0.86910000       2.87950000
N        0.03880000      -0.09840000      -0.02140000
H       -0.73400000       1.95310000       0.23360000
H       -0.18140000       1.56420000      -1.41630000
H        2.18970000       1.35700000      -0.60470000
H        1.70810000       2.43060000       0.74330000
H        2.55520000      -1.53610000       1.60690000
H        0.12110000      -2.76330000       1.81730000
H       -1.76280000      -0.78400000       1.14590000
H       -0.22880000       1.16460000       2.74690000
