18
Properties=species:S:1:pos:R:3 gdb_13639=T pbc="F F F"
C       -0.02260000       1.40550000      -0.32490000
C       -0.04180000      -0.01590000      -0.00830000
C       -0.04920000      -1.19100000       0.25450000
C       -0.08090000      -2.61670000       0.57140000
C       -1.41890000      -3.26690000       0.24680000
C       -1.72470000      -3.70530000      -1.17030000
C       -1.48280000      -4.72910000      -0.08800000
O       -0.27490000      -5.43640000      -0.06260000
H        0.83650000       1.66370000      -0.95450000
H       -0.92770000       1.70660000      -0.86440000
H        0.03840000       2.01730000       0.58220000
H        0.71140000      -3.14560000       0.03120000
H        0.14060000      -2.76190000       1.63730000
H       -2.25370000      -2.87230000       0.81810000
H       -2.72780000      -3.57620000      -1.56180000
H       -0.93140000      -3.57460000      -1.89970000
H       -2.34120000      -5.28990000       0.28220000
H       -0.27240000      -6.04640000      -0.80720000
