14
Properties=species:S:1:pos:R:3 gdb_47320=T pbc="F F F"
O        0.04900000       0.34660000      -1.07790000
C        0.04260000       1.24700000      -0.28750000
C       -1.28250000       1.77270000       0.26500000
N       -1.29610000       2.42350000       1.57490000
C       -0.75090000       3.67400000       1.77570000
O       -1.21610000       4.53550000       2.46620000
O        0.43800000       3.85140000       1.10770000
C        1.33260000       2.76450000       1.11280000
O        1.20150000       1.87930000       0.01150000
H       -1.68680000       2.43080000      -0.51880000
H       -1.93620000       0.90220000       0.31710000
H       -2.17380000       2.32960000       2.06690000
H        2.33000000       3.18860000       1.00190000
H        1.24690000       2.20430000       2.04850000
