15
Properties=species:S:1:pos:R:3 gdb_27959=T pbc="F F F"
N       -0.01480000       1.37630000       0.15860000
C        0.02370000       0.00370000       0.06020000
N       -1.15000000      -0.62500000       0.04630000
C       -1.14550000      -1.96490000       0.00880000
C       -2.46550000      -2.66400000      -0.00460000
O       -3.54250000      -2.12600000       0.01120000
C        0.01280000      -2.73410000      -0.02600000
C        1.24130000      -2.06700000      -0.02080000
C        1.25760000      -0.68820000       0.02510000
H        0.77550000       1.89520000      -0.18810000
H       -0.91710000       1.78100000      -0.04150000
H       -2.37230000      -3.77450000      -0.03270000
H       -0.04530000      -3.81590000      -0.06050000
H        2.17280000      -2.62250000      -0.05010000
H        2.19210000      -0.13740000       0.03980000
