16
Properties=species:S:1:pos:R:3 gdb_88409=T pbc="F F F"
O        0.11260000       1.33370000       0.46920000
C        0.07720000      -0.02410000       0.13520000
C       -0.53480000      -1.00940000       1.09560000
C       -1.28610000      -0.59080000      -0.15260000
C       -2.50440000       0.32350000      -0.03460000
C       -2.64880000       1.15140000      -1.32010000
O       -3.60780000       1.15070000      -2.03890000
C       -3.71810000      -0.42430000       0.29170000
N       -4.66040000      -1.03200000       0.56730000
H        0.79060000       1.46640000       1.14010000
H        0.89910000      -0.36190000      -0.49430000
H       -0.13640000      -2.01620000       1.14440000
H       -0.89700000      -0.61520000       2.03930000
H       -1.35690000      -1.31940000      -0.95360000
H       -2.30280000       1.04710000       0.76530000
H       -1.74420000       1.76020000      -1.52610000
