15
Properties=species:S:1:pos:R:3 gdb_54352=T pbc="F F F"
N        0.02800000       1.29540000       0.45270000
C       -0.00950000       0.15260000      -0.27030000
O        0.89500000      -0.23600000      -0.98090000
C       -1.29920000      -0.68930000      -0.16390000
C       -1.83990000      -1.17960000      -1.54850000
O       -1.66310000      -2.55700000      -1.19540000
C       -1.03110000      -2.21710000       0.04490000
C       -2.30480000      -0.12230000       0.71550000
N       -3.07560000       0.36800000       1.42580000
H        0.85890000       1.86190000       0.39950000
H       -0.73710000       1.59400000       1.03430000
H       -2.88440000      -0.92940000      -1.75680000
H       -1.19130000      -0.87430000      -2.37510000
H        0.03770000      -2.45080000       0.04630000
H       -1.53150000      -2.66490000       0.90860000
