18
Properties=species:S:1:pos:R:3 gdb_108359=T pbc="F F F"
O        0.03330000       1.38790000      -0.11290000
C       -0.00200000      -0.02680000       0.00240000
C       -1.44130000      -0.47130000      -0.05600000
O       -1.56850000      -1.90270000       0.01560000
C       -2.43940000      -1.92780000      -1.15010000
C       -2.36730000      -0.39140000      -1.29330000
C       -3.35820000       0.44940000      -0.45370000
N       -3.76450000      -0.37120000       0.70790000
C       -2.47950000       0.36410000       0.74940000
H        0.94960000       1.67110000      -0.04760000
H        0.55850000      -0.51960000      -0.80600000
H        0.42400000      -0.37240000       0.95920000
H       -1.97340000      -2.48370000      -1.97210000
H       -3.42040000      -2.34580000      -0.91230000
H       -2.03740000       0.04510000      -2.23410000
H       -3.97610000       1.26480000      -0.80790000
H       -4.43330000       0.17890000       1.24570000
H       -2.27340000       1.09230000       1.52370000
