17
Properties=species:S:1:pos:R:3 gdb_110765=T pbc="F F F"
O       -0.09620000       1.24840000       0.53990000
C        0.00490000      -0.00590000      -0.12300000
C       -1.35070000      -0.65890000      -0.00740000
C       -1.66350000      -2.11890000      -0.06780000
C       -0.56110000      -2.95610000       0.58980000
C       -0.85600000      -2.18830000       1.91140000
O       -0.54890000      -2.38580000       3.05180000
C       -1.89090000      -1.31050000       1.25680000
O       -3.05900000      -0.89360000       1.84400000
H        0.76090000       1.68290000       0.49750000
H        0.26110000       0.12480000      -1.18670000
H        0.78700000      -0.63070000       0.32900000
H       -2.13700000      -0.04880000      -0.45080000
H       -2.43470000      -2.51340000      -0.71590000
H       -0.83030000      -4.00940000       0.71190000
H        0.44780000      -2.89320000       0.17510000
H       -2.97460000       0.04160000       2.06110000
