13
Properties=species:S:1:pos:R:3 gdb_56486=T pbc="F F F"
O       -0.17740000       1.33530000      -0.07460000
C        0.01650000      -0.04380000      -0.01750000
C        0.76040000      -0.56050000      -1.19010000
N        1.34640000      -0.94640000      -2.10740000
C        0.78960000      -0.42040000       1.25830000
O        1.34940000       0.40290000       1.92940000
O        0.73680000      -1.74530000       1.48730000
C        1.45240000      -2.25820000       2.56200000
N        1.32260000      -3.48000000       2.80110000
H        0.52360000       1.73590000       0.46180000
H       -0.95760000      -0.54700000       0.00930000
H        2.05260000      -1.50190000       3.06640000
H        1.89720000      -3.74790000       3.59880000
