16
Properties=species:S:1:pos:R:3 gdb_16846=T pbc="F F F"
O        0.01230000       0.05060000      -0.65460000
C        0.00230000       1.15030000      -0.13580000
C       -1.32040000       1.83370000       0.22410000
C       -1.24430000       2.90060000       1.29810000
C       -0.56520000       2.65240000       2.60980000
C        0.09800000       3.55650000       1.56980000
C        1.26860000       3.03150000       0.84580000
C        1.24030000       1.91380000       0.10190000
H       -1.67980000       2.28620000      -0.71060000
H       -2.04220000       1.05170000       0.47970000
H       -2.10380000       3.56310000       1.33470000
H       -0.97250000       3.12470000       3.49680000
H       -0.09500000       1.68950000       2.77980000
H        0.11570000       4.61660000       1.79780000
H        2.20460000       3.57340000       0.96410000
H        2.13580000       1.51320000      -0.36180000
