19
Properties=species:S:1:pos:R:3 gdb_98991=T pbc="F F F"
C        0.09040000       1.36820000      -0.84740000
N        0.16860000      -0.05900000      -1.08090000
C        0.92440000      -0.87830000      -0.31300000
O        1.56990000      -0.52840000       0.66010000
C        0.87270000      -2.36590000      -0.71720000
C        0.89700000      -2.63800000      -2.21550000
O        0.09920000      -2.11320000      -2.98570000
N        1.85290000      -3.50780000      -2.62980000
C        2.01950000      -3.89290000      -4.01890000
H        0.62070000       1.58360000       0.08100000
H        0.55570000       1.93540000      -1.66230000
H       -0.95120000       1.69310000      -0.75110000
H       -0.24220000      -0.47030000      -1.91160000
H        1.68600000      -2.85960000      -0.18330000
H       -0.07170000      -2.77390000      -0.33730000
H        2.48550000      -3.88530000      -1.94440000
H        2.99720000      -3.58140000      -4.40220000
H        1.92250000      -4.97680000      -4.14160000
H        1.23680000      -3.39530000      -4.59160000
