23
Properties=species:S:1:pos:R:3 gdb_91943=T pbc="F F F"
C        0.64670000       1.40590000      -0.45080000
C        0.06650000       0.11400000       0.12610000
O        0.02070000      -0.90050000      -0.89480000
C        0.92840000      -1.92540000      -0.59750000
C        2.38680000      -1.57340000      -0.44230000
C        1.49120000      -1.74240000       0.77450000
C        0.79010000      -0.52130000       1.37220000
C        1.75140000       0.42930000       2.09870000
C       -0.28030000      -1.02460000       2.36090000
H        1.70210000       1.31680000      -0.71940000
H        0.09220000       1.66650000      -1.35670000
H        0.54260000       2.23220000       0.25960000
H       -0.97830000       0.32060000       0.39110000
H        0.62360000      -2.87840000      -1.01480000
H        3.11260000      -2.36020000      -0.62200000
H        2.71980000      -0.58520000      -0.73640000
H        1.67500000      -2.58300000       1.43530000
H        2.55920000       0.77410000       1.44860000
H        1.23030000       1.31010000       2.48950000
H        2.21030000      -0.08320000       2.95090000
H        0.17720000      -1.56950000       3.19390000
H       -0.84940000      -0.18880000       2.78240000
H       -0.98580000      -1.69730000       1.86270000
