16
Properties=species:S:1:pos:R:3 gdb_50197=T pbc="F F F"
O       -0.74840000       1.22710000      -0.65480000
C        0.05200000       1.19190000       0.24460000
C        1.39630000       1.87670000       0.21730000
C        1.66080000       2.95670000      -0.85360000
C        2.04680000       3.89590000       0.32300000
N        1.67890000       2.83190000       1.35530000
C        0.48870000       3.64010000       1.79700000
C        0.91610000       4.78250000       0.85570000
O        0.55170000       5.90100000       0.65770000
H       -0.15360000       0.63020000       1.18430000
H        2.15460000       1.08180000       0.23370000
H        2.46780000       2.74200000      -1.55430000
H        0.77170000       3.25040000      -1.41530000
H        3.06150000       4.30020000       0.33550000
H       -0.49980000       3.21940000       1.57870000
H        0.52990000       3.88940000       2.86200000
