19
Properties=species:S:1:pos:R:3 gdb_26294=T pbc="F F F"
C        0.00210000       1.55830000       0.00780000
C        0.00140000       0.01740000       0.03980000
C        0.77510000      -0.51180000       1.26320000
C       -1.38650000      -0.54140000      -0.02700000
C       -1.97540000      -1.32540000      -0.95580000
N       -3.28730000      -1.56550000      -0.54500000
C       -3.55930000      -0.93520000       0.66100000
O       -4.59200000      -0.93130000       1.30220000
N       -2.35400000      -0.30570000       0.95640000
H        1.02680000       1.94310000       0.00700000
H       -0.50910000       1.93380000      -0.88290000
H       -0.50560000       1.97540000       0.88480000
H        0.51320000      -0.33880000      -0.86260000
H        0.30410000      -0.19450000       2.20040000
H        0.81270000      -1.60460000       1.26270000
H        1.80090000      -0.13000000       1.26500000
H       -1.57580000      -1.73090000      -1.86930000
H       -3.97850000      -2.11420000      -1.02340000
H       -2.24150000       0.24270000       1.79020000
