24
Properties=species:S:1:pos:R:3 gdb_13403=T pbc="F F F"
C        0.06750000       1.57390000       0.17190000
C       -0.00310000       0.05130000       0.02520000
C        0.68190000      -0.46030000      -1.24820000
C        0.67970000      -1.98300000      -1.40300000
C       -0.70850000      -2.62960000      -1.58230000
C       -0.42680000      -4.03840000      -2.15910000
C        0.99560000      -3.96360000      -2.79170000
C        1.43720000      -2.49320000      -2.64210000
H        1.10680000       1.92000000       0.20470000
H       -0.41930000       2.07590000      -0.67180000
H       -0.42520000       1.91240000       1.08890000
H        0.46250000      -0.42250000       0.90000000
H       -1.05300000      -0.26660000       0.03170000
H        0.19640000      -0.01130000      -2.12740000
H        1.72030000      -0.10020000      -1.26090000
H        1.15100000      -2.42360000      -0.51050000
H       -1.29240000      -2.66460000      -0.65840000
H       -1.28550000      -2.03320000      -2.30180000
H       -0.45260000      -4.79250000      -1.36640000
H       -1.18690000      -4.33140000      -2.88890000
H        1.68450000      -4.62000000      -2.25010000
H        1.00670000      -4.29290000      -3.83440000
H        1.12170000      -1.90970000      -3.51760000
H        2.52250000      -2.37970000      -2.55660000
