18
Properties=species:S:1:pos:R:3 gdb_109026=T pbc="F F F"
C        0.14510000       1.53420000      -0.13730000
C       -0.06910000       0.02540000       0.07920000
C        0.62940000      -0.48290000       1.30110000
C        0.13400000      -0.99960000       2.43630000
C        1.23810000      -1.40740000       3.34440000
C        2.16760000      -2.48650000       2.88390000
N        2.49430000      -1.06120000       2.67610000
C        2.12080000      -0.58040000       1.36250000
O        2.90850000      -0.33890000       0.48400000
H        1.21050000       1.75830000      -0.23130000
H       -0.35700000       1.86520000      -1.05110000
H       -0.25610000       2.11290000       0.70060000
H       -1.13870000      -0.20120000       0.14210000
H        0.32580000      -0.51140000      -0.79230000
H       -0.91390000      -1.10660000       2.69070000
H        1.17180000      -1.18400000       4.40560000
H        2.79880000      -3.00100000       3.60300000
H        1.87380000      -3.06930000       2.01460000
