18
Properties=species:S:1:pos:R:3 gdb_39858=T pbc="F F F"
C        0.00600000       1.45480000      -0.02720000
N        1.21780000       0.59400000       0.05710000
C       -0.11400000      -0.00740000      -0.01330000
C       -0.57830000      -0.93810000       1.11020000
N        0.24270000      -2.16420000       0.88080000
C       -0.53390000      -2.29690000      -0.35880000
C       -1.75870000      -1.65500000       0.32300000
N       -2.11490000      -0.79230000      -0.83760000
C       -0.63890000      -0.88190000      -1.13980000
H       -0.20040000       2.02930000       0.87150000
H       -0.19760000       1.98090000      -0.95620000
H        1.66790000       0.55790000      -0.85520000
H       -0.66020000      -0.55650000       2.12640000
H        1.23340000      -1.94890000       0.76160000
H       -0.51570000      -3.22880000      -0.92490000
H       -2.53190000      -2.17870000       0.88060000
H       -2.61100000      -1.38940000      -1.50090000
H       -0.30630000      -0.70310000      -2.16230000
