15
Properties=species:S:1:pos:R:3 gdb_127550=T pbc="F F F"
C       -0.00830000       1.43970000      -0.03920000
N        0.00970000      -0.01800000      -0.00700000
N       -0.05550000      -0.66120000      -1.19190000
C       -0.04120000      -1.94850000      -1.20320000
C        0.04210000      -2.78780000      -0.00650000
N        0.06240000      -4.06210000       0.07350000
N        0.10400000      -2.02650000       1.15730000
C        0.09350000      -0.65020000       1.23380000
O        0.15060000      -0.03070000       2.27360000
H        0.90520000       1.84410000       0.40390000
H       -0.08260000       1.73340000      -1.08470000
H       -0.86210000       1.82400000       0.52440000
H       -0.09530000      -2.42650000      -2.17530000
H        0.01060000      -4.47870000      -0.85460000
H        0.16420000      -2.51860000       2.03840000
