17
Properties=species:S:1:pos:R:3 gdb_54192=T pbc="F F F"
C        0.98670000       0.07230000       0.42120000
C       -0.34960000       0.38200000      -0.19880000
O       -0.67940000       1.51230000      -0.50450000
C       -1.35270000      -0.74380000      -0.46750000
O       -2.43010000      -0.23710000      -1.19480000
C       -0.85960000      -2.12090000      -1.06000000
C       -1.43580000      -2.81770000       0.17940000
O       -0.76320000      -2.28000000       1.32870000
C       -1.85590000      -1.54460000       0.77980000
H        1.63430000      -0.38600000      -0.33630000
H        1.45200000       0.99620000       0.76740000
H        0.88460000      -0.65820000       1.22630000
H       -2.28060000       0.72520000      -1.21250000
H       -1.41980000      -2.31930000      -1.97490000
H        0.20980000      -2.26670000      -1.22750000
H       -1.84810000      -3.81430000       0.27730000
H       -2.68560000      -1.28150000       1.42570000
