23
Properties=species:S:1:pos:R:3 gdb_63935=T pbc="F F F"
C        0.20170000       1.45810000      -0.17280000
C        0.02430000      -0.03890000       0.04320000
C       -1.42600000      -0.44880000      -0.21230000
O        0.89620000      -0.81360000      -0.84070000
C        1.41490000      -1.59950000       0.24820000
C        2.78690000      -1.09140000       0.73180000
C        2.06210000      -0.12640000       1.71910000
C        0.67440000      -0.71450000       1.29860000
C       -0.19620000      -1.21330000       2.43280000
H        1.25110000       1.75390000      -0.12610000
H       -0.17790000       1.73870000      -1.16070000
H       -0.35740000       2.02840000       0.57720000
H       -1.70350000      -0.17240000      -1.23430000
H       -1.55840000      -1.52890000      -0.11200000
H       -2.11330000       0.05270000       0.47750000
H        1.26110000      -2.67340000       0.10060000
H        3.38640000      -1.85500000       1.23530000
H        3.38630000      -0.63110000      -0.05660000
H        2.29220000      -0.32800000       2.76840000
H        2.20840000       0.94090000       1.54710000
H       -0.56750000      -0.37570000       3.03650000
H       -1.06190000      -1.78250000       2.08440000
H        0.37910000      -1.86230000       3.10220000
