27
Properties=species:S:1:pos:R:3 gdb_117671=T pbc="F F F"
C       -0.21740000       1.63330000      -0.10370000
C       -0.00970000       0.11570000      -0.05320000
C       -1.33920000      -0.65000000      -0.03700000
C       -1.27510000      -2.19900000       0.05120000
C       -0.47760000      -2.77090000      -1.13410000
C       -0.61060000      -2.64560000       1.36950000
C       -2.72730000      -2.69460000       0.07580000
C       -3.56210000      -2.95390000      -1.15270000
C       -3.15680000      -4.10070000      -0.25640000
H        0.73810000       2.16720000      -0.11640000
H       -0.77550000       1.92760000      -0.99970000
H       -0.78390000       1.98480000       0.76600000
H        0.59160000      -0.19090000      -0.91720000
H        0.58160000      -0.13460000       0.83570000
H       -1.93770000      -0.28630000       0.81040000
H       -1.90830000      -0.38550000      -0.93870000
H        0.57220000      -2.47080000      -1.07370000
H       -0.49520000      -3.86500000      -1.14200000
H       -0.86460000      -2.41690000      -2.09490000
H       -1.13770000      -2.23130000       2.23640000
H       -0.63120000      -3.73660000       1.45900000
H        0.43450000      -2.32650000       1.42920000
H       -3.28200000      -2.25010000       0.90050000
H       -4.59770000      -2.63130000      -1.14930000
H       -3.08840000      -2.89390000      -2.12630000
H       -2.42010000      -4.79740000      -0.64090000
H       -3.91290000      -4.56550000       0.36730000
