14
Properties=species:S:1:pos:R:3 gdb_46167=T pbc="F F F"
N       -0.02330000       1.17630000      -0.46500000
C        0.03970000      -0.00660000      -0.04890000
N        0.95810000      -0.86280000       0.52870000
C        0.11720000      -2.05900000       0.47520000
C       -1.05920000      -1.12490000      -0.02530000
C       -2.13490000      -0.91200000       0.92640000
C       -3.00690000      -0.73920000       1.73260000
C       -1.55410000      -1.47340000      -1.35560000
N       -1.91920000      -1.77200000      -2.41000000
H        0.86240000       1.67510000      -0.37510000
H        1.96450000      -0.80950000       0.48610000
H        0.41570000      -2.80560000      -0.26620000
H       -0.06790000      -2.52920000       1.44310000
H       -3.78680000      -0.57590000       2.43530000
