23
Properties=species:S:1:pos:R:3 gdb_84594=T pbc="F F F"
C       -0.05330000       1.57830000      -0.02740000
C        0.03560000       0.04190000       0.02190000
C        0.69900000      -0.50020000      -1.22920000
C        1.74870000      -1.31480000      -1.12990000
C        2.22470000      -1.68510000       0.25640000
C        2.30990000      -0.38070000       1.10510000
C        0.76180000      -0.50700000       1.28400000
C        0.14650000      -0.02690000       2.58880000
C        0.97300000      -2.04580000       1.11000000
H        0.93940000       2.03670000       0.03180000
H       -0.50960000       1.90380000      -0.96810000
H       -0.66270000       1.97660000       0.78860000
H       -0.99880000      -0.33780000       0.05460000
H        0.29720000      -0.18940000      -2.19040000
H        2.25390000      -1.71650000      -2.00310000
H        3.07580000      -2.36740000       0.25470000
H        2.82300000      -0.54590000       2.05770000
H        2.71480000       0.51090000       0.61960000
H        0.25580000       1.05450000       2.72060000
H       -0.92470000      -0.26030000       2.63340000
H        0.62920000      -0.51280000       3.44330000
H        0.18430000      -2.62810000       0.62540000
H        1.24370000      -2.51030000       2.06340000
