17
Properties=species:S:1:pos:R:3 gdb_54214=T pbc="F F F"
C        0.07480000       1.48940000      -0.03720000
C       -0.03810000      -0.03140000      -0.02050000
C        0.79730000      -0.74210000      -1.12900000
N        1.72430000      -1.62860000      -0.41140000
C        1.51230000      -1.43440000       0.81880000
O        0.56260000      -0.54100000       1.21200000
C       -1.52080000      -0.43570000      -0.09420000
N       -2.03970000      -0.96610000       1.03900000
O       -2.15010000      -0.24850000      -1.11850000
H        1.12660000       1.78830000      -0.03560000
H       -0.40720000       1.87250000      -0.93980000
H       -0.41720000       1.92960000       0.83480000
H        0.16300000      -1.30980000      -1.81390000
H        1.36590000      -0.02300000      -1.72850000
H        2.03270000      -1.92040000       1.63680000
H       -1.45660000      -1.12480000       1.84190000
H       -3.00550000      -1.24900000       1.04310000
