20
Properties=species:S:1:pos:R:3 gdb_30911=T pbc="F F F"
C        0.11110000       1.62380000       0.14920000
C        0.00840000       0.09520000      -0.01980000
C        0.66520000      -0.43780000      -1.25200000
C        0.10920000      -0.72380000      -2.48210000
O       -1.22270000      -0.54930000      -2.75360000
C        1.13000000      -1.18870000      -3.35150000
C        2.29780000      -1.17290000      -2.61980000
N        2.02200000      -0.71520000      -1.36040000
C        2.98750000      -0.61830000      -0.28880000
H        1.15330000       1.95280000       0.21920000
H       -0.33940000       2.13420000      -0.70690000
H       -0.40590000       1.95340000       1.05690000
H        0.41250000      -0.39710000       0.87470000
H       -1.04920000      -0.18450000      -0.06840000
H       -1.40610000      -0.92420000      -3.61920000
H        1.02470000      -1.48910000      -4.38330000
H        3.30260000      -1.45290000      -2.89390000
H        3.03820000       0.39850000       0.11450000
H        2.74830000      -1.30310000       0.53300000
H        3.97230000      -0.88210000      -0.67880000
