19
Properties=species:S:1:pos:R:3 gdb_96398=T pbc="F F F"
C       -0.04270000       1.53710000      -0.03630000
C        0.03000000       0.01410000      -0.01110000
N        0.69400000      -0.49700000      -1.20450000
C        0.70900000      -1.95760000      -1.23740000
C        1.46220000      -2.45190000      -0.00800000
O        0.86880000      -1.94420000       1.18920000
C        0.79770000      -0.53160000       1.21340000
C        2.14790000       0.06930000       1.33500000
N        3.19550000       0.53990000       1.46140000
H        0.95550000       1.97280000      -0.12820000
H       -0.64430000       1.87180000      -0.88780000
H       -0.51390000       1.92260000       0.87300000
H       -0.99190000      -0.39720000       0.10110000
H        0.25650000      -0.11820000      -2.03690000
H       -0.30520000      -2.39750000      -1.23590000
H        1.22430000      -2.29480000      -2.14270000
H        1.41540000      -3.53980000       0.07890000
H        2.51490000      -2.14220000      -0.06500000
H        0.24370000      -0.27950000       2.12380000
