18
Properties=species:S:1:pos:R:3 gdb_11085=T pbc="F F F"
O       -0.05440000       1.41810000      -0.18410000
C       -0.00560000       0.03250000      -0.02390000
C        0.34230000      -0.50710000       1.39970000
C       -1.06230000      -1.18270000       1.49930000
C       -1.33400000      -0.80540000       0.02480000
O       -2.55180000      -0.21140000      -0.31010000
C       -0.70970000      -1.78510000      -1.01890000
C        0.52240000      -0.84010000      -1.18590000
H        0.84500000       1.75920000      -0.12160000
H        1.19540000      -1.18990000       1.43950000
H        0.49530000       0.29620000       2.12330000
H       -1.08760000      -2.24590000       1.75500000
H       -1.73100000      -0.63570000       2.16840000
H       -3.23380000      -0.89230000      -0.28780000
H       -0.48600000      -2.78530000      -0.63780000
H       -1.31870000      -1.87580000      -1.92070000
H        0.48910000      -0.28980000      -2.12930000
H        1.51370000      -1.28640000      -1.06410000
