16
Properties=species:S:1:pos:R:3 gdb_127511=T pbc="F F F"
C        0.05040000       1.40090000      -0.09990000
N        0.06660000      -0.03670000       0.00440000
N        0.08940000      -0.82050000      -1.12970000
C        0.09950000      -2.06060000      -0.67170000
O        0.12220000      -3.12660000      -1.50070000
C        0.08400000      -2.13070000       0.74100000
N        0.08620000      -3.19050000       1.68840000
C        0.06330000      -0.79780000       1.11310000
O        0.04260000      -0.26910000       2.34780000
H        0.94180000       1.75700000      -0.62570000
H       -0.83670000       1.73540000      -0.64640000
H        0.03360000       1.81960000       0.90710000
H        0.12840000      -2.77840000      -2.40160000
H        0.90880000      -3.77890000       1.59540000
H       -0.71970000      -3.79850000       1.57710000
H        0.04530000      -1.03260000       2.94610000
