18
Properties=species:S:1:pos:R:3 gdb_67503=T pbc="F F F"
C       -0.14750000       1.55270000       0.00110000
C       -0.05080000       0.05860000      -0.06470000
C       -0.96420000      -0.83920000       0.79550000
C       -2.07510000      -1.81890000       0.58840000
O       -2.25970000      -2.62330000      -0.29400000
C        0.56280000      -0.97540000       0.83830000
C        1.22410000      -1.56640000      -0.41230000
C        0.32820000      -1.90780000      -1.53370000
N        0.64850000      -0.48400000      -1.29100000
H        0.81930000       2.00230000      -0.24390000
H       -0.88000000       1.92020000      -0.72640000
H       -0.45100000       1.89120000       0.99580000
H       -1.23740000      -0.23010000       1.65800000
H       -2.81850000      -1.74530000       1.41360000
H        1.08550000      -0.85710000       1.77970000
H        2.29040000      -1.76740000      -0.42670000
H        0.82520000      -2.26220000      -2.43400000
H       -0.67180000      -2.28790000      -1.37320000
