18
Properties=species:S:1:pos:R:3 gdb_9693=T pbc="F F F"
O        0.17920000       0.56860000       0.85040000
C       -0.22870000       0.23540000      -0.46590000
C       -1.56030000      -0.49140000      -0.48830000
C       -1.75560000      -1.68520000      -1.40890000
C       -1.62140000      -1.87960000       0.07750000
O       -0.39750000      -2.37560000       0.58210000
C       -2.80340000      -2.31110000       0.91770000
O       -2.86020000      -3.72470000       1.05770000
H        0.33510000      -0.27180000       1.29680000
H       -0.30800000       1.18080000      -1.01230000
H        0.53190000      -0.37430000      -0.97320000
H       -2.42700000       0.13650000      -0.29790000
H       -2.72510000      -1.84900000      -1.86670000
H       -0.90910000      -1.96610000      -2.02800000
H       -0.28200000      -3.26950000       0.24340000
H       -2.75040000      -1.82120000       1.90150000
H       -3.73850000      -2.00250000       0.44000000
H       -2.15890000      -3.96820000       1.67030000
