16
Properties=species:S:1:pos:R:3 gdb_15165=T pbc="F F F"
O        0.29000000       1.00160000       0.64470000
C       -0.02030000       0.02510000      -0.34100000
C       -1.39070000      -0.47800000      -0.25600000
C       -2.53540000      -0.84660000      -0.18640000
C       -3.90610000      -1.33560000      -0.07910000
C       -3.98180000      -2.78440000       0.37380000
C       -5.09940000      -3.64980000      -0.01790000
O       -3.81560000      -3.77700000      -0.63390000
H       -0.38880000       1.68270000       0.59670000
H        0.16370000       0.40970000      -1.35700000
H        0.69070000      -0.79320000      -0.18170000
H       -4.46160000      -0.71380000       0.63650000
H       -4.42090000      -1.24490000      -1.04330000
H       -3.45910000      -3.00000000       1.30600000
H       -5.39720000      -4.47640000       0.62520000
H       -5.88700000      -3.25370000      -0.65840000
