19
Properties=species:S:1:pos:R:3 gdb_81449=T pbc="F F F"
O       -0.01820000       1.34830000      -0.15760000
C        0.00120000      -0.05650000      -0.04540000
C        0.12530000      -0.62040000       1.40980000
C       -1.37460000      -0.22750000       1.57830000
C       -1.44070000      -0.62750000       0.06990000
C       -1.13740000      -2.11410000       0.14940000
C       -2.08460000      -3.19620000      -0.11080000
O       -1.04590000      -2.87780000      -1.05040000
C        0.03440000      -2.13790000       1.15560000
H        0.87440000       1.67120000       0.00170000
H        0.64990000      -0.50900000      -0.80820000
H        0.89990000      -0.26730000       2.09230000
H       -1.97720000      -0.80250000       2.28680000
H       -1.51560000       0.84160000       1.72410000
H       -2.23700000      -0.30860000      -0.60100000
H       -1.97120000      -4.15130000       0.40180000
H       -3.09770000      -2.96760000      -0.44120000
H        0.93200000      -2.55810000       0.69200000
H       -0.18780000      -2.70620000       2.06350000
