21
Properties=species:S:1:pos:R:3 gdb_117355=T pbc="F F F"
C        0.09050000       1.40190000      -0.14150000
O       -0.00930000       0.00170000      -0.02800000
C        0.65000000      -0.66810000      -1.05940000
C        0.49920000      -2.17010000      -0.86810000
O       -0.07620000      -2.71080000       0.03680000
O        1.12530000      -2.80070000      -1.88140000
C        1.10530000      -4.25500000      -1.86780000
C       -0.20130000      -4.75400000      -2.47560000
C        2.34140000      -4.70060000      -2.63440000
H        1.13770000       1.74240000      -0.10520000
H       -0.35690000       1.77000000      -1.07860000
H       -0.45140000       1.83310000       0.70300000
H        0.24700000      -0.40410000      -2.05220000
H        1.72730000      -0.43030000      -1.08820000
H        1.16440000      -4.57010000      -0.82220000
H       -0.31030000      -4.39430000      -3.50380000
H       -0.21320000      -5.84830000      -2.49100000
H       -1.05400000      -4.41100000      -1.88580000
H        3.24940000      -4.30100000      -2.17490000
H        2.40750000      -5.79260000      -2.63680000
H        2.29990000      -4.35640000      -3.67260000
