13
Properties=species:S:1:pos:R:3 gdb_4723=T pbc="F F F"
C       -0.00050000       1.53310000      -0.03020000
C        0.00070000       0.03630000       0.01500000
C       -0.06010000      -0.82720000      -1.04000000
O       -0.03820000      -2.11790000      -0.63320000
C        0.03920000      -2.09030000       0.72920000
C        0.06590000      -0.79840000       1.17460000
C        0.07690000      -3.32390000       1.41350000
N        0.10910000      -4.32420000       1.99730000
H        0.90870000       1.94570000       0.41990000
H       -0.05830000       1.89530000      -1.05980000
H       -0.85230000       1.94730000       0.51940000
H       -0.12060000      -0.67600000      -2.10590000
H        0.12490000      -0.48650000       2.20570000
