21
Properties=species:S:1:pos:R:3 gdb_122186=T pbc="F F F"
C       -0.04700000       1.64800000       0.08320000
C       -0.05120000       0.12670000      -0.00820000
C        1.12460000      -0.48130000      -0.82330000
O        1.78350000      -0.90130000       0.38770000
C        0.62020000      -0.59060000       1.18110000
O       -1.32930000      -0.41820000      -0.26260000
C       -1.94080000      -0.07000000      -1.49720000
C       -3.25000000      -0.84330000      -1.55330000
O       -4.09790000      -0.50050000      -0.47590000
H        0.93940000       1.99680000       0.40190000
H       -0.26850000       2.11640000      -0.88040000
H       -0.78910000       1.98790000       0.81260000
H        0.82380000      -1.33380000      -1.44660000
H        1.74220000       0.20750000      -1.41080000
H        0.86680000       0.01730000       2.05870000
H        0.07240000      -1.48940000       1.48980000
H       -2.14850000       1.00760000      -1.54450000
H       -1.29560000      -0.33980000      -2.34810000
H       -3.78420000      -0.59740000      -2.47690000
H       -3.02790000      -1.92220000      -1.56590000
H       -3.55940000      -0.58760000       0.31930000
