20
Properties=species:S:1:pos:R:3 gdb_55353=T pbc="F F F"
C       -0.87430000       0.92950000       0.30410000
C        0.38690000       0.15590000      -0.01210000
O        1.32380000       0.09180000       0.75080000
C        0.38640000      -0.58920000      -1.35410000
C        1.76530000      -1.10560000      -1.80920000
C        1.44340000      -2.42150000      -2.54790000
C        0.13900000      -2.88570000      -1.92030000
C        0.03040000      -2.86150000      -0.44120000
N       -0.53590000      -1.75580000      -1.24310000
H       -0.95370000       1.79120000      -0.36980000
H       -1.74990000       0.29920000       0.11960000
H       -0.85750000       1.27870000       1.33710000
H       -0.05760000       0.06380000      -2.11600000
H        2.28130000      -0.38290000      -2.44530000
H        2.39840000      -1.27060000      -0.93480000
H        1.28450000      -2.24280000      -3.61720000
H        2.24460000      -3.16160000      -2.45850000
H       -0.50560000      -3.54570000      -2.49400000
H       -0.71600000      -3.47390000       0.05550000
H        0.92370000      -2.67370000       0.14750000
