14
Properties=species:S:1:pos:R:3 gdb_133223=T pbc="F F F"
C       -0.00570000       1.45700000       0.00960000
N       -0.03230000       0.00320000       0.00100000
C       -1.21660000      -0.70290000       0.00410000
C       -1.17350000      -2.04590000      -0.00370000
F       -2.28820000      -2.75570000      -0.00110000
C        0.10460000      -2.72940000      -0.01500000
N        0.20770000      -4.00180000      -0.02270000
N        1.24570000      -1.87070000      -0.01700000
N        1.16910000      -0.60890000      -0.00940000
H        1.04080000       1.75900000       0.00330000
H       -0.50800000       1.85840000      -0.87640000
H       -0.49420000       1.84770000       0.90800000
H       -2.13830000      -0.13660000       0.01260000
H        1.20030000      -4.24810000      -0.02990000
