17
Properties=species:S:1:pos:R:3 gdb_113020=T pbc="F F F"
C        0.14500000       1.16350000       0.27800000
O        0.25730000      -0.23840000       0.08860000
C        0.51210000      -0.60590000      -1.23820000
O        1.83020000      -0.25150000      -1.65540000
C        2.65400000      -1.40770000      -1.70470000
C        3.63090000      -1.42120000      -0.52330000
O        4.72040000      -1.92590000      -0.55690000
C        1.69690000      -2.56790000      -1.59160000
C        0.47730000      -2.10780000      -1.34000000
H        1.08360000       1.67610000       0.03720000
H       -0.65900000       1.58660000      -0.34250000
H       -0.09630000       1.32400000       1.33060000
H       -0.18790000      -0.07760000      -1.90490000
H        3.23020000      -1.40830000      -2.63750000
H        3.21300000      -0.93210000       0.38400000
H        2.01610000      -3.59800000      -1.67490000
H       -0.42560000      -2.68020000      -1.17940000
