20
Properties=species:S:1:pos:R:3 gdb_64010=T pbc="F F F"
C       -0.11350000       1.55780000      -0.00630000
C       -0.01840000       0.01820000      -0.00260000
C       -1.42100000      -0.59860000       0.00920000
C        0.78460000      -0.47930000      -1.21950000
C        2.28860000      -0.17080000      -1.15680000
O        2.93110000       0.01910000      -2.17550000
C        2.85690000      -0.21530000       0.17950000
C        2.05320000      -0.36910000       1.26270000
N        0.69450000      -0.43560000       1.20680000
H        0.88020000       2.01240000       0.02160000
H       -0.62330000       1.90890000      -0.90880000
H       -0.68000000       1.91170000       0.86170000
H       -1.97640000      -0.29930000      -0.88420000
H       -1.36630000      -1.69050000       0.03540000
H       -1.99240000      -0.26120000       0.88230000
H        0.69210000      -1.57200000      -1.28800000
H        0.37960000      -0.06000000      -2.14360000
H        3.93170000      -0.16360000       0.29270000
H        2.47170000      -0.46450000       2.26120000
H        0.19780000      -0.32330000       2.07730000
