18
Properties=species:S:1:pos:R:3 gdb_16373=T pbc="F F F"
C       -0.36320000       1.27390000      -1.29070000
C        0.23590000      -0.03890000      -0.83050000
O        1.62530000      -0.19560000      -1.22390000
C        2.04540000      -0.56240000       0.11720000
C        3.24300000       0.23060000       0.59800000
C        0.64740000      -0.21890000       0.63030000
C        0.20370000       0.45370000       1.84910000
O       -0.07100000      -0.93780000       1.60490000
H        0.21080000       2.12180000      -0.90590000
H       -0.36430000       1.32600000      -2.38380000
H       -1.39950000       1.36190000      -0.94700000
H       -0.36670000      -0.88750000      -1.18580000
H        2.24280000      -1.64250000       0.18090000
H        3.03610000       1.30440000       0.57380000
H        3.50530000      -0.05710000       1.62180000
H        4.10880000       0.03180000      -0.04110000
H        0.91410000       0.65400000       2.64970000
H       -0.66440000       1.11070000       1.82300000
