17
Properties=species:S:1:pos:R:3 gdb_32719=T pbc="F F F"
C       -0.09050000       1.37880000       0.00700000
O       -0.13190000      -0.04190000      -0.00780000
C        0.52110000      -0.63310000      -1.02640000
N        0.68160000      -1.88520000      -1.03870000
C        1.26310000      -2.48070000      -2.16190000
C        1.06500000      -2.17800000      -3.49920000
N        1.82220000      -3.05450000      -4.23820000
C        2.49340000      -3.91100000      -3.40360000
C        2.16150000      -3.58850000      -2.11060000
H        0.91860000       1.74770000       0.22720000
H       -0.42780000       1.80170000      -0.94770000
H       -0.76910000       1.69950000       0.79830000
H        0.87220000       0.05210000      -1.81240000
H        0.40870000      -1.46530000      -3.97110000
H        1.83150000      -3.10080000      -5.24130000
H        3.14540000      -4.67330000      -3.79860000
H        2.52320000      -4.06300000      -1.21210000
