13
Properties=species:S:1:pos:R:3 gdb_32070=T pbc="F F F"
O        0.18700000       1.35980000      -0.04600000
C        0.04360000      -0.02820000      -0.07750000
C       -1.39590000      -0.46040000      -0.04610000
N       -2.34080000       0.42360000       0.00520000
C       -3.60770000      -0.10180000       0.02910000
N       -3.94270000      -1.35330000       0.00640000
C       -2.94180000      -2.29510000      -0.04780000
O       -3.04140000      -3.47660000      -0.07550000
O       -1.58610000      -1.76680000      -0.07460000
H       -0.70550000       1.73370000      -0.00920000
H        0.49880000      -0.45960000      -0.98320000
H        0.55040000      -0.50500000       0.77670000
H       -4.41300000       0.62910000       0.07220000
