17
Properties=species:S:1:pos:R:3 gdb_79419=T pbc="F F F"
O        0.16720000       1.45230000       0.23390000
C        0.05290000       0.05980000       0.07730000
C       -1.36690000      -0.59760000       0.08760000
C       -2.78290000      -0.19910000      -0.45240000
C       -2.08250000       0.63050000      -1.54550000
C       -1.29100000      -0.73470000      -1.45600000
C       -2.68270000      -1.44790000      -1.43560000
C        0.22950000      -0.53750000      -1.40980000
O        1.18590000      -0.76780000      -2.08310000
H        1.07340000       1.69910000       0.01470000
H        0.71960000      -0.47260000       0.77250000
H       -1.33910000      -1.53460000       0.65050000
H       -3.66600000       0.07550000       0.13020000
H       -2.62090000       0.77600000      -2.48510000
H       -1.56350000       1.53020000      -1.22430000
H       -2.70140000      -2.43950000      -0.97730000
H       -3.30160000      -1.40140000      -2.33510000
