13
Properties=species:S:1:pos:R:3 gdb_36574=T pbc="F F F"
C        0.02110000      -1.15740000      -0.08900000
C        0.05300000       0.03460000       0.04550000
C        0.05710000       1.47450000       0.22060000
O        1.35150000       1.98350000      -0.13790000
C        1.42610000       3.38350000      -0.08330000
C        1.33210000       3.90440000       1.30390000
N        1.20740000       4.28040000       2.38830000
C        2.69530000       3.79940000      -0.70260000
N        3.67220000       4.14900000      -1.20630000
H       -0.00110000      -2.21290000      -0.20900000
H       -0.71100000       1.94100000      -0.41630000
H       -0.17210000       1.73470000       1.26400000
H        0.60620000       3.84910000      -0.65770000
