16
Properties=species:S:1:pos:R:3 gdb_20245=T pbc="F F F"
C       -0.20660000       1.30730000       0.10910000
C        1.38050000       1.23870000       0.04630000
C        2.20600000       0.10300000       0.74050000
C        1.53650000      -1.31290000       0.51140000
C        0.09500000      -1.09260000       0.30740000
C       -0.05070000      -0.06540000      -0.56490000
C        1.31770000       0.29430000      -1.18690000
C        2.35260000      -0.65400000      -0.56680000
H       -0.71360000       1.32930000       1.07560000
H       -0.55220000       2.13730000      -0.51830000
H        1.92640000       2.18330000      -0.01430000
H        2.91750000       0.22850000       1.54550000
H        1.96320000      -2.12930000       1.08420000
H       -0.60800000      -1.27430000       1.11580000
H        1.37010000       0.66290000      -2.20870000
H        3.22380000      -1.09720000      -1.02920000
