14
Properties=species:S:1:pos:R:3 gdb_132018=T pbc="F F F"
N        0.08560000       1.40690000       0.14730000
C       -0.00120000       0.02020000       0.03920000
C       -1.14450000      -0.69810000       0.02480000
F       -2.30890000      -0.03580000       0.03360000
C       -1.15550000      -2.15300000      -0.00320000
N       -2.25420000      -2.80810000      -0.01110000
N        0.12070000      -2.76810000      -0.03440000
C        1.17730000      -2.04470000      -0.01980000
N        1.20050000      -0.67490000      -0.00590000
H        0.64170000       1.83290000      -0.58690000
H       -0.83730000       1.82290000       0.16190000
H       -2.03220000      -3.80470000      -0.04650000
H        2.15920000      -2.51430000      -0.02830000
H        2.05390000      -0.18100000       0.20470000
