22
Properties=species:S:1:pos:R:3 gdb_101189=T pbc="F F F"
C        0.71440000       1.13010000      -0.62810000
C       -0.07140000      -0.07230000      -0.08440000
C       -0.14930000      -1.20360000      -1.11310000
O       -0.84040000      -0.71770000      -2.25530000
C        0.56950000      -0.58450000       1.19130000
C        0.31050000      -0.09840000       2.56160000
C       -1.15110000       0.28100000       2.79380000
C       -1.49990000      -1.14580000       2.30490000
N       -0.04740000      -1.52830000       2.15400000
H        1.76310000       0.86260000      -0.80600000
H        0.28660000       1.46610000      -1.57490000
H        0.69840000       1.96360000       0.08070000
H       -1.09930000       0.25310000       0.10590000
H        0.87110000      -1.53120000      -1.37350000
H       -0.66720000      -2.06810000      -0.67090000
H       -0.85510000      -1.41420000      -2.91770000
H        1.60750000      -0.88200000       1.03590000
H        1.11770000       0.10400000       3.25960000
H       -1.38680000       0.43110000       3.84870000
H       -1.53570000       1.13440000       2.22700000
H       -1.95170000      -1.77130000       3.07700000
H       -2.09210000      -1.24180000       1.38980000
