17
Properties=species:S:1:pos:R:3 gdb_18886=T pbc="F F F"
C        0.01080000       1.51720000       0.07230000
C        1.53570000       1.44310000      -0.05470000
O        2.11520000       1.10250000       1.21630000
C        1.85390000      -0.30230000       1.39210000
C        2.24570000      -0.88820000       0.02590000
C        1.31100000       0.05140000      -0.71450000
N       -0.04980000       0.01160000       0.00680000
C        0.32950000      -0.51090000       1.35590000
H       -0.39460000       1.96380000       0.98450000
H       -0.48300000       1.94900000      -0.80480000
H        2.12140000       2.24620000      -0.51040000
H        2.38620000      -0.64920000       2.27790000
H        3.29750000      -0.72220000      -0.21790000
H        1.99200000      -1.94420000      -0.09310000
H        1.22330000      -0.01050000      -1.79740000
H        0.07020000      -1.57280000       1.43770000
H       -0.20180000       0.03450000       2.13940000
