17
Properties=species:S:1:pos:R:3 gdb_62207=T pbc="F F F"
O        0.61130000       1.83820000       0.00350000
C        0.31170000       0.61100000      -0.65810000
C        1.52170000       0.20760000      -1.53440000
O        1.32720000      -0.97940000      -2.27660000
C        0.83720000      -0.81220000      -3.59390000
C       -0.58640000      -0.47490000      -3.69030000
C       -1.75370000      -0.20420000      -3.78800000
C       -0.05130000      -0.44750000       0.28280000
C       -0.30140000      -1.29630000       1.09640000
H        1.14270000       1.62730000       0.77910000
H       -0.53950000       0.82580000      -1.31090000
H        1.76090000       1.05870000      -2.18670000
H        2.37980000       0.02880000      -0.87610000
H        1.42660000      -0.05040000      -4.12860000
H        1.01420000      -1.76980000      -4.09570000
H       -2.78630000       0.03120000      -3.87050000
H       -0.54250000      -2.05220000       1.80250000
