21
Properties=species:S:1:pos:R:3 gdb_76171=T pbc="F F F"
C       -0.06520000       1.52420000       0.11830000
C        0.04510000       0.02280000      -0.03120000
C        0.67420000      -0.66990000      -1.21290000
C        0.02480000      -1.95520000      -1.69460000
C        1.30760000       0.14030000      -2.32940000
C        1.39220000      -0.69050000       0.15240000
N        2.56430000       0.13670000       0.31380000
C        1.39230000      -1.92710000       0.90600000
N        1.43730000      -2.90320000       1.52810000
H        0.84740000       2.03420000      -0.19170000
H       -0.89700000       1.90660000      -0.48300000
H       -0.26320000       1.79280000       1.16150000
H       -0.78950000      -0.52100000       0.40450000
H       -0.77840000      -1.72500000      -2.40360000
H        0.75070000      -2.59440000      -2.20930000
H       -0.40520000      -2.53420000      -0.87390000
H        1.87180000       0.99400000      -1.95620000
H        1.99080000      -0.48640000      -2.91370000
H        0.53260000       0.50390000      -3.01360000
H        2.69010000       0.38520000       1.29060000
H        3.39800000      -0.36630000       0.02520000
