18
Properties=species:S:1:pos:R:3 gdb_52856=T pbc="F F F"
C       -0.06970000       1.53940000       0.25510000
C       -0.01810000       0.08720000       0.17690000
C        0.02570000      -1.11500000       0.10780000
C        0.09100000      -2.55060000       0.00470000
C        1.35080000      -3.12460000      -0.64920000
C        1.55430000      -2.66850000      -2.01920000
C        1.72170000      -2.29150000      -3.14740000
C       -0.60910000      -3.35840000       1.05090000
N       -1.14880000      -3.29640000      -0.31240000
H        0.76710000       1.99070000      -0.28910000
H       -0.99590000       1.92810000      -0.18260000
H       -0.01950000       1.88870000       1.29240000
H        2.22070000      -2.85670000      -0.03670000
H        1.26810000      -4.21700000      -0.63360000
H        1.86680000      -1.96140000      -4.14580000
H       -0.20050000      -4.32400000       1.33800000
H       -1.11200000      -2.81740000       1.84660000
H       -1.93080000      -2.64770000      -0.34990000
