18
Properties=species:S:1:pos:R:3 gdb_17559=T pbc="F F F"
C       -0.10730000       1.53970000       0.05940000
C        0.13360000       0.06790000      -0.00780000
O       -0.77300000      -0.80450000       0.69840000
C        0.62980000      -0.91780000       0.97160000
C        1.24050000      -1.80020000      -0.13090000
C        0.70690000      -0.76310000      -1.15120000
C        0.12190000      -0.97990000      -2.51180000
C        1.43500000      -0.24240000      -2.35460000
H        0.78580000       2.09680000      -0.24120000
H       -0.92850000       1.83360000      -0.60500000
H       -0.37760000       1.83150000       1.07740000
H        0.94830000      -0.79530000       2.00100000
H        2.33300000      -1.84200000      -0.09790000
H        0.83100000      -2.81210000      -0.18960000
H        0.14740000      -1.98500000      -2.92000000
H       -0.75770000      -0.40920000      -2.79200000
H        1.44140000       0.82900000      -2.53020000
H        2.34780000      -0.74580000      -2.65710000
