21
Properties=species:S:1:pos:R:3 gdb_114259=T pbc="F F F"
O        0.02320000       1.38920000      -0.18320000
C        0.04750000      -0.00330000       0.09450000
C       -1.37790000      -0.51040000       0.05490000
C       -2.11330000      -0.54370000      -1.31320000
C       -2.68930000      -1.93000000      -0.93750000
C       -4.18390000      -2.07350000      -0.57440000
O       -4.36970000      -3.11950000      -1.54840000
C       -2.98750000      -3.04460000      -1.95330000
C       -1.61470000      -2.04140000       0.17210000
H        0.92830000       1.71380000      -0.18360000
H        0.65080000      -0.54850000      -0.65150000
H        0.48910000      -0.20820000       1.08430000
H       -1.96880000       0.03680000       0.79650000
H       -2.82710000       0.25480000      -1.52990000
H       -1.40560000      -0.61210000      -2.14700000
H       -4.39520000      -2.42090000       0.44630000
H       -4.80940000      -1.19640000      -0.78940000
H       -2.88210000      -2.76020000      -3.00930000
H       -2.45660000      -3.99200000      -1.78560000
H       -0.74450000      -2.61310000      -0.17110000
H       -1.93140000      -2.44010000       1.14000000
