16
Properties=species:S:1:pos:R:3 gdb_63615=T pbc="F F F"
C       -0.19780000       1.52530000      -0.01170000
C        0.02770000       0.03430000      -0.02860000
O       -1.04830000      -0.72740000      -0.46800000
C        1.34140000      -0.55810000      -0.34140000
C        0.86890000      -0.66430000       1.10740000
C        1.54240000       0.13270000       2.13690000
O        2.22990000       1.11480000       1.94530000
C        1.30840000      -0.33330000       3.52310000
N        1.12430000      -0.70010000       4.60430000
H        0.67750000       2.05700000       0.36200000
H       -0.41480000       1.86830000      -1.02820000
H       -1.05290000       1.78350000       0.62470000
H       -1.83910000      -0.43920000       0.00240000
H        1.35490000      -1.48170000      -0.90760000
H        2.17390000       0.11820000      -0.50070000
H        0.44830000      -1.60950000       1.42730000
