19
Properties=species:S:1:pos:R:3 gdb_92616=T pbc="F F F"
C        0.43570000       1.49530000      -0.13990000
C        0.04990000       0.03570000       0.08000000
O        0.45070000      -0.74870000      -1.06060000
C        1.04910000      -1.94590000      -0.61800000
O        2.31540000      -2.24220000      -1.18640000
C        3.29730000      -2.36240000      -0.14430000
C        2.52030000      -2.56420000       1.18870000
C        1.32940000      -1.73790000       0.84610000
C        0.76030000      -0.61040000       1.25060000
H        1.52250000       1.59820000      -0.20790000
H       -0.00630000       1.85900000      -1.07160000
H        0.07010000       2.11990000       0.68200000
H       -1.04610000      -0.03260000       0.17550000
H        0.37970000      -2.78240000      -0.87380000
H        3.95330000      -3.20130000      -0.39370000
H        3.90390000      -1.44820000      -0.08840000
H        2.27010000      -3.62240000       1.32820000
H        3.07850000      -2.21710000       2.06010000
H        0.85820000      -0.12670000       2.21470000
