19
Properties=species:S:1:pos:R:3 gdb_41326=T pbc="F F F"
C       -0.02410000       1.55220000       0.25100000
C        1.52250000       1.49340000      -0.08470000
C        1.20180000       0.23680000      -0.93650000
C        0.51830000       0.61260000      -2.29960000
O       -0.71620000      -0.11160000      -2.30640000
C       -0.69380000      -0.90340000      -1.09510000
C        0.49190000      -1.89220000      -1.23790000
C        1.64320000      -1.19740000      -1.14160000
C       -0.04890000       0.02660000      -0.06300000
H       -0.29490000       1.83840000       1.26870000
H       -0.58480000       2.17110000      -0.45060000
H        1.97200000       2.35230000      -0.58930000
H        2.10760000       1.25970000       0.80850000
H        0.30480000       1.68320000      -2.38990000
H        1.14360000       0.31000000      -3.14770000
H       -1.68530000      -1.33200000      -0.95540000
H        0.38240000      -2.93260000      -1.51830000
H        2.64590000      -1.57050000      -1.31240000
H        0.21300000      -0.52610000       0.84070000
