15
Properties=species:S:1:pos:R:3 gdb_3203=T pbc="F F F"
C       -0.08380000       1.61840000      -0.02670000
C        0.06840000       0.10280000      -0.04440000
C        0.71740000      -0.62380000      -1.24060000
C        2.15640000      -0.26870000      -1.35290000
C        1.75190000      -1.31050000      -0.31330000
C        1.12740000      -0.60520000       0.85390000
O        1.26720000      -0.67090000       2.04260000
H        0.84010000       2.12630000      -0.31850000
H       -0.87570000       1.94450000      -0.70880000
H       -0.34530000       1.95640000       0.98080000
H       -0.89110000      -0.36960000       0.20360000
H        0.17060000      -1.09750000      -2.04550000
H        2.69180000      -0.68530000      -2.20000000
H        2.52330000       0.70350000      -1.03810000
H        2.16380000      -2.31160000      -0.33050000
