17
Properties=species:S:1:pos:R:3 gdb_68957=T pbc="F F F"
C        0.13180000       1.48390000       0.00540000
C        0.06580000      -0.01710000       0.01550000
C        1.23790000      -0.88610000      -0.26600000
C        0.65940000      -0.97710000       1.14100000
C        1.45640000      -0.47880000       2.27800000
O        2.31530000       0.37170000       2.19050000
N       -0.33920000      -1.96890000       1.40930000
C       -1.32950000      -1.72990000       0.62760000
N       -1.20140000      -0.65600000      -0.23520000
H        1.07520000       1.80920000       0.44970000
H        0.08110000       1.87530000      -1.01730000
H       -0.68730000       1.92240000       0.58570000
H        1.11330000      -1.75330000      -0.90620000
H        2.20190000      -0.39050000      -0.30560000
H        1.18330000      -0.94180000       3.25000000
H       -2.23270000      -2.33040000       0.59930000
H       -2.00700000      -0.09130000      -0.46080000
