14
Properties=species:S:1:pos:R:3 gdb_129692=T pbc="F F F"
N        0.02080000       1.49270000      -0.14890000
C       -0.00040000       0.10120000      -0.07230000
C       -1.09560000      -0.75820000      -0.02780000
N       -0.57900000      -2.03210000      -0.04340000
N        0.76570000      -2.04800000      -0.08440000
C        1.11080000      -0.76990000      -0.10440000
O        2.39810000      -0.35360000      -0.13990000
C       -2.47020000      -0.47340000       0.02550000
C       -3.64640000      -0.21250000       0.08100000
H        0.86660000       1.88940000       0.23880000
H       -0.79650000       1.92660000       0.25990000
H       -1.09100000      -2.89490000      -0.01050000
H        2.95520000      -1.14160000      -0.13870000
H       -4.68300000       0.01460000       0.11660000
