17
Properties=species:S:1:pos:R:3 gdb_2209=T pbc="F F F"
C        0.15940000       1.53540000      -0.09540000
C        0.02530000       0.03730000       0.08400000
O        0.88080000      -0.71670000      -0.80960000
C        1.40620000      -1.52300000       0.27330000
C        2.91970000      -1.58360000       0.28310000
C        0.67180000      -0.64270000       1.32420000
O        1.44660000       0.14790000       2.18920000
H        1.19200000       1.87070000       0.04350000
H       -0.14610000       1.81640000      -1.10770000
H       -0.47650000       2.06690000       0.61940000
H       -1.02470000      -0.26150000      -0.04840000
H        0.99270000      -2.54100000       0.22820000
H        3.36610000      -0.58590000       0.34160000
H        3.27570000      -2.17290000       1.13380000
H        3.27790000      -2.05250000      -0.63830000
H       -0.02480000      -1.18090000       1.96960000
H        2.08340000       0.64830000       1.66910000
