17
Properties=species:S:1:pos:R:3 gdb_93611=T pbc="F F F"
C       -0.07160000       1.61080000       0.11880000
C        0.17160000       0.11170000      -0.03610000
C        1.22230000      -0.33360000      -1.05950000
O        1.66380000      -1.61960000      -0.61000000
C        1.78390000      -1.56200000       0.80420000
C        3.10210000      -1.11020000       1.24870000
C        4.17840000      -0.70580000       1.59880000
C        0.68830000      -0.54730000       1.24570000
O        0.33190000      -0.33550000       2.36990000
H        0.86820000       2.14310000       0.29730000
H       -0.53670000       2.03110000      -0.77750000
H       -0.72980000       1.79600000       0.97150000
H       -0.77480000      -0.39770000      -0.26690000
H        0.83450000      -0.46210000      -2.07150000
H        2.06340000       0.37550000      -1.09010000
H        1.56110000      -2.55460000       1.20920000
H        5.13360000      -0.36590000       1.91590000
