19
Properties=species:S:1:pos:R:3 gdb_55487=T pbc="F F F"
C        1.10330000       0.00420000      -0.24920000
C       -0.36000000       0.20230000       0.08020000
O       -0.76990000       1.15510000       0.69650000
C       -1.35400000      -0.85570000      -0.44670000
C       -0.87020000      -2.22820000      -0.46610000
C       -0.46300000      -3.36360000      -0.46670000
C        0.01510000      -4.71570000      -0.46260000
C       -0.51690000      -5.72010000      -1.47400000
C        0.89230000      -5.22400000      -1.59720000
H        1.47750000      -0.88940000       0.26040000
H        1.23650000      -0.17380000      -1.32200000
H        1.67260000       0.88000000       0.06320000
H       -2.26880000      -0.75340000       0.14600000
H       -1.61370000      -0.54000000      -1.46910000
H        0.24140000      -5.11750000       0.52090000
H       -0.68330000      -6.73290000      -1.12480000
H       -1.24930000      -5.35950000      -2.18600000
H        1.11890000      -4.52560000      -2.39380000
H        1.70420000      -5.89270000      -1.33460000
