19
Properties=species:S:1:pos:R:3 gdb_39263=T pbc="F F F"
C       -0.04570000       1.45090000      -0.06290000
C        1.33760000       0.81630000      -0.01440000
C        2.19150000       0.41750000      -1.20860000
C        2.28300000      -1.13460000      -1.23000000
C        0.89180000      -1.75390000      -0.92130000
O        0.75020000      -2.13460000       0.46050000
C       -0.01380000      -1.09680000       1.10720000
C        0.08260000      -0.02260000       0.05810000
O       -0.09950000      -0.76830000      -1.13630000
H       -0.35490000       2.02440000       0.80430000
H       -0.43130000       1.81770000      -1.00890000
H        1.86950000       0.95050000       0.92370000
H        1.73830000       0.76670000      -2.13990000
H        3.19020000       0.85910000      -1.15340000
H        2.63260000      -1.48220000      -2.20800000
H        2.99600000      -1.49420000      -0.48210000
H        0.66760000      -2.62610000      -1.54030000
H       -1.03900000      -1.44440000       1.28690000
H        0.45890000      -0.83180000       2.05700000
