15
Properties=species:S:1:pos:R:3 gdb_2054=T pbc="F F F"
O        0.01730000      -0.08030000      -0.04610000
C       -0.01130000       1.12330000       0.05620000
C       -1.30320000       1.91880000       0.12130000
C       -1.32170000       2.86820000       1.33630000
C       -0.02520000       3.62150000       1.47800000
C        1.11820000       3.22550000       0.92120000
C        1.26320000       1.96050000       0.11380000
H       -1.35910000       2.52530000      -0.79330000
H       -2.14710000       1.22570000       0.12410000
H       -2.15880000       3.56940000       1.24110000
H       -1.52060000       2.29590000       2.25380000
H       -0.04490000       4.52940000       2.07530000
H        2.02130000       3.81520000       1.05830000
H        2.06840000       1.32480000       0.49880000
H        1.54980000       2.20110000      -0.92230000
