19
Properties=species:S:1:pos:R:3 gdb_89537=T pbc="F F F"
O       -0.09640000       1.49980000      -0.03240000
C        0.03680000       0.09860000      -0.01280000
C        0.35570000      -0.60040000       1.34390000
C       -0.77160000      -1.60550000       1.01420000
C       -1.31280000      -0.64990000      -0.06460000
C       -0.56120000      -3.11630000       0.73020000
C       -0.44810000      -3.38140000       2.24970000
C       -1.64260000      -2.43520000       1.98300000
O       -2.02870000      -3.29730000       0.83550000
H        0.78270000       1.88950000       0.01200000
H        0.71800000      -0.24910000      -0.80270000
H        1.36700000      -0.98460000       1.50150000
H        0.08340000       0.05720000       2.17560000
H       -2.10630000      -0.00450000       0.32460000
H       -1.63280000      -1.07650000      -1.01600000
H       -0.05370000      -3.60570000      -0.10280000
H       -0.72300000      -4.39000000       2.55990000
H        0.41850000      -2.98720000       2.78550000
H       -2.43720000      -2.10730000       2.65500000
