21
Properties=species:S:1:pos:R:3 gdb_104894=T pbc="F F F"
O        0.80080000       0.24640000      -0.83130000
C       -0.08870000       0.44830000       0.25840000
C       -1.37460000      -0.38020000       0.12200000
C       -2.23910000       0.11270000      -1.04610000
O       -2.69560000       1.43250000      -0.83210000
C       -1.12270000      -1.89980000       0.05450000
C       -2.19080000      -2.47990000       0.99800000
C       -2.32210000      -1.36990000       2.04070000
O       -2.15020000      -0.14920000       1.32210000
H        0.53630000       0.83650000      -1.54280000
H        0.43930000       0.12970000       1.16330000
H       -0.35710000       1.50460000       0.37560000
H       -1.65020000       0.11570000      -1.97030000
H       -3.07890000      -0.58560000      -1.19320000
H       -3.06490000       1.43070000       0.06060000
H       -1.20110000      -2.28510000      -0.96520000
H       -0.11540000      -2.13250000       0.41250000
H       -3.14090000      -2.61580000       0.47130000
H       -1.90550000      -3.44130000       1.43230000
H       -3.29670000      -1.33930000       2.53710000
H       -1.54720000      -1.46460000       2.81680000
