19
Properties=species:S:1:pos:R:3 gdb_57913=T pbc="F F F"
C       -0.15820000       1.67650000      -0.01340000
C        0.08010000       0.15640000       0.05840000
O        0.84080000      -0.17330000       1.19020000
C       -1.24950000      -0.60000000       0.09860000
O       -1.59440000      -1.15000000       1.12150000
C       -2.06500000      -0.69370000      -1.18060000
C       -1.83620000      -2.03780000      -1.93540000
C       -3.30500000      -2.31360000      -1.55260000
O       -3.44300000      -1.00490000      -0.95650000
H        0.80880000       2.18240000       0.03790000
H       -0.65680000       1.97500000      -0.94040000
H       -0.76330000       2.00590000       0.83650000
H        0.62290000      -0.15580000      -0.84920000
H        0.22790000      -0.64230000       1.77950000
H       -1.94020000       0.20940000      -1.78970000
H       -1.64450000      -1.92480000      -3.00250000
H       -1.09390000      -2.70640000      -1.49780000
H       -4.00100000      -2.45610000      -2.38630000
H       -3.45210000      -3.10960000      -0.81470000
