14
Properties=species:S:1:pos:R:3 gdb_128071=T pbc="F F F"
C       -0.01810000       1.41870000       0.09350000
N        0.12130000      -0.01890000      -0.02280000
C        0.54390000      -0.62050000      -1.16380000
O        0.84730000      -0.04170000      -2.19490000
C        0.61820000      -2.09930000      -1.07640000
C        0.99970000      -2.98880000      -2.03380000
O        0.92140000      -4.21430000      -1.54200000
N        0.45820000      -4.07500000      -0.18250000
N        0.30020000      -2.85050000       0.03440000
H        0.63170000       1.81690000       0.88020000
H        0.27080000       1.85500000      -0.86320000
H       -1.05290000       1.69910000       0.31770000
H       -0.10000000      -0.60930000       0.76410000
H        1.33030000      -2.86340000      -3.05120000
