14
Properties=species:S:1:pos:R:3 gdb_24536=T pbc="F F F"
N       -0.00740000       1.35890000       0.00980000
C        1.17050000       2.03490000       0.00220000
N        2.34670000       1.46880000      -0.01230000
C        2.40830000       0.10780000      -0.02060000
C        1.27930000      -0.67320000      -0.01410000
N        1.11600000      -2.02840000      -0.02010000
C       -0.20740000      -2.19770000      -0.00830000
C       -0.97720000      -0.99400000       0.00590000
C       -0.01740000      -0.00730000       0.00220000
H       -0.87350000       1.88090000       0.02110000
H        1.09030000       3.11720000       0.00910000
H        3.40130000      -0.33130000      -0.03260000
H       -0.62700000      -3.19830000      -0.00990000
H       -2.05200000      -0.90130000       0.01680000
