21
Properties=species:S:1:pos:R:3 gdb_74007=T pbc="F F F"
C       -0.04860000       1.47900000       0.08580000
C       -0.01360000      -0.00800000      -0.06370000
C       -1.02220000      -0.86130000      -0.22450000
C       -2.46900000      -1.13880000       0.12270000
C       -1.93910000      -2.49860000       0.72140000
C       -0.62040000      -2.30340000      -0.11760000
O       -0.70070000      -2.96330000      -1.37870000
C        0.81520000      -2.24290000       0.44660000
C        1.28900000      -0.81040000       0.04700000
H        0.51450000       1.97030000      -0.71850000
H       -1.07210000       1.86310000       0.05880000
H        0.41610000       1.79770000       1.02800000
H       -2.97380000      -0.44450000       0.79880000
H       -3.10380000      -1.31340000      -0.75080000
H       -1.76820000      -2.43050000       1.79840000
H       -2.52410000      -3.39390000       0.49260000
H       -0.64220000      -3.91040000      -1.21140000
H        0.80800000      -2.33300000       1.53800000
H        1.45590000      -3.03440000       0.04630000
H        1.85100000      -0.81320000      -0.89650000
H        1.95620000      -0.37620000       0.80110000
