23
Properties=species:S:1:pos:R:3 gdb_116205=T pbc="F F F"
C       -0.01640000       1.62650000      -0.03330000
C        0.01730000       0.09640000       0.03830000
C       -1.37240000      -0.54440000      -0.00710000
C       -2.15520000      -0.31430000      -1.31560000
C       -3.12720000      -1.49350000      -1.30890000
O       -2.38250000      -2.58330000      -0.78160000
C       -1.40330000      -2.07690000       0.11050000
C       -0.20830000      -2.96210000       0.30330000
C       -1.23670000      -2.80420000       1.41260000
H        0.99180000       2.04580000       0.03750000
H       -0.45480000       1.97480000      -0.97390000
H       -0.61050000       2.04810000       0.78540000
H        0.62270000      -0.30070000      -0.78610000
H        0.52450000      -0.20450000       0.96410000
H       -1.96600000      -0.13090000       0.82070000
H       -2.65870000       0.65460000      -1.35490000
H       -1.48170000      -0.38800000      -2.17780000
H       -4.00260000      -1.27510000      -0.67530000
H       -3.48770000      -1.78030000      -2.30100000
H       -0.21320000      -3.89580000      -0.24820000
H        0.77180000      -2.51840000       0.43690000
H       -0.95800000      -2.23460000       2.29450000
H       -1.90420000      -3.63800000       1.59910000
