13
Properties=species:S:1:pos:R:3 gdb_49962=T pbc="F F F"
O       -0.50700000       0.78360000       0.85330000
C        0.18960000       0.87300000      -0.12180000
C        1.40080000       1.75930000      -0.16420000
N        2.38250000       1.48230000      -1.19700000
C        1.64160000       2.74490000      -1.31660000
C        0.68750000       2.81650000      -2.48480000
O        0.28870000       3.84590000      -2.95100000
C        2.28880000       3.98260000      -0.94580000
N        2.84410000       4.94990000      -0.64400000
H        0.00260000       0.29190000      -1.04850000
H        1.71830000       2.12460000       0.80970000
H        3.33350000       1.64210000      -0.87440000
H        0.40430000       1.81930000      -2.87720000
