18
Properties=species:S:1:pos:R:3 gdb_79271=T pbc="F F F"
C       -0.07040000       1.53450000      -0.04780000
N        0.09380000       0.08520000      -0.00460000
C        0.77380000      -0.58000000      -1.10920000
C        2.31040000      -0.58410000      -0.84300000
C        2.51280000       0.10440000       0.50360000
C        1.13110000      -0.50230000       0.89310000
C        0.74360000      -0.77620000       2.31070000
O        1.53500000      -0.91640000       3.21000000
C        1.38320000      -1.61230000      -0.22820000
H        0.83650000       2.09120000      -0.32700000
H       -0.85120000       1.77500000      -0.77650000
H       -0.40820000       1.88940000       0.93150000
H        0.34460000      -0.67620000      -2.09920000
H        3.03130000      -0.74070000      -1.63550000
H        3.29730000      -0.37990000       1.08750000
H        2.62920000       1.19100000       0.55420000
H       -0.35320000      -0.86840000       2.47100000
H        1.35400000      -2.69140000      -0.20970000
