17
Properties=species:S:1:pos:R:3 gdb_2750=T pbc="F F F"
C       -0.14570000       1.53800000      -0.05900000
C       -0.00460000       0.02120000      -0.02850000
C        1.17150000      -0.52920000      -0.88830000
C        2.03460000      -0.65230000       0.39370000
C        0.72730000      -0.55630000       1.24400000
C        0.74110000       0.20830000       2.47310000
C        0.75900000       0.85930000       3.48510000
H        0.81420000       2.03610000       0.11370000
H       -0.52270000       1.86500000      -1.03410000
H       -0.83920000       1.88700000       0.71190000
H       -0.97690000      -0.44230000      -0.21880000
H        0.94380000      -1.50390000      -1.32850000
H        1.54510000       0.12830000      -1.67720000
H        2.63510000      -1.55500000       0.52310000
H        2.67450000       0.21830000       0.55180000
H        0.34860000      -1.56410000       1.44640000
H        0.77500000       1.42710000       4.38200000
