20
Properties=species:S:1:pos:R:3 gdb_96835=T pbc="F F F"
C       -0.04810000       1.42320000       0.03630000
N       -0.04540000      -0.03080000       0.02100000
C        0.55750000      -0.62640000       0.96350000
N        1.24460000      -0.10010000       2.05730000
C        1.70060000      -1.15280000       2.85690000
C        2.44540000      -0.85850000       4.11730000
N        1.43270000      -2.31990000       2.41010000
C        0.68540000      -2.13890000       1.15310000
C       -0.66810000      -2.85140000       1.17860000
H        0.96920000       1.84440000      -0.00280000
H       -0.59230000       1.79800000      -0.83400000
H       -0.54100000       1.83200000       0.93330000
H        1.30290000       0.87580000       2.29120000
H        1.83420000      -0.26140000       4.80370000
H        2.71350000      -1.79680000       4.60250000
H        3.35760000      -0.28860000       3.90830000
H        1.28510000      -2.55110000       0.33120000
H       -1.27610000      -2.49200000       2.01420000
H       -1.20500000      -2.65140000       0.24800000
H       -0.52550000      -3.92850000       1.29500000
