23
Properties=species:S:1:pos:R:3 gdb_89978=T pbc="F F F"
C       -0.07800000       1.55070000      -0.26090000
C       -0.01300000       0.02650000      -0.18570000
C        1.24110000      -0.59320000      -0.85880000
O        1.83360000       0.21650000      -1.84950000
C        1.91380000      -0.69600000       0.53550000
C        0.50300000      -0.53980000       1.16890000
C        0.34350000       0.13890000       2.55250000
C        0.19350000      -1.26930000       3.18980000
C       -0.11790000      -1.82940000       1.77670000
H        0.84680000       2.01700000       0.09160000
H       -0.23620000       1.87990000      -1.29140000
H       -0.90220000       1.93150000       0.35110000
H       -0.96610000      -0.39730000      -0.52140000
H        1.01240000      -1.59260000      -1.25590000
H        2.63310000      -0.22120000      -2.15810000
H        2.48350000      -1.60050000       0.76960000
H        2.54190000       0.18110000       0.72080000
H        1.16600000       0.77170000       2.89760000
H       -0.58610000       0.71380000       2.61740000
H        1.14550000      -1.64390000       3.57580000
H       -0.56720000      -1.39730000       3.96340000
H       -1.19580000      -1.88000000       1.58890000
H        0.32790000      -2.78850000       1.49610000
