23
Properties=species:S:1:pos:R:3 gdb_89715=T pbc="F F F"
C        0.51370000       1.44980000       0.07590000
C       -0.01270000       0.03380000      -0.03510000
C        0.40830000      -0.80940000      -1.26250000
C        1.03880000      -1.72890000      -0.22350000
C        0.99330000      -3.22080000      -0.09820000
C        2.33090000      -2.49040000      -0.23330000
C        3.07720000      -2.62100000      -1.54640000
C        3.20770000      -2.39760000       1.00040000
O        0.66910000      -0.88030000       0.86720000
H        1.58720000       1.48190000      -0.13500000
H       -0.00230000       2.10650000      -0.63340000
H        0.35020000       1.84060000       1.08510000
H       -1.09340000       0.01060000       0.15730000
H       -0.40750000      -1.23710000      -1.84840000
H        1.11390000      -0.31130000      -1.93280000
H        0.73640000      -3.62140000       0.87750000
H        0.63080000      -3.80480000      -0.93950000
H        2.39370000      -2.65720000      -2.40060000
H        3.75990000      -1.77650000      -1.70020000
H        3.67700000      -3.53880000      -1.56490000
H        3.77910000      -3.32190000       1.14470000
H        3.92500000      -1.57350000       0.90770000
H        2.61270000      -2.21480000       1.89810000
