19
Properties=species:S:1:pos:R:3 gdb_86429=T pbc="F F F"
O        0.01360000       1.38140000      -0.22780000
C        0.04040000      -0.01290000       0.03110000
C        0.56590000      -0.40910000       1.42340000
C       -0.05670000      -1.79820000       1.68910000
O       -0.14900000      -2.15910000       3.04710000
C       -1.44240000      -1.70760000       1.02540000
O       -2.33830000      -0.95270000       1.88080000
C       -2.39420000       0.13800000       0.92310000
C       -1.39280000      -0.56450000      -0.01460000
H        0.91240000       1.71750000      -0.15740000
H        0.63290000      -0.52930000      -0.74170000
H        1.65720000      -0.41500000       1.49160000
H        0.18780000       0.30220000       2.16650000
H        0.53520000      -2.57900000       1.19610000
H       -0.89230000      -1.64660000       3.39520000
H       -1.87200000      -2.67700000       0.75590000
H       -3.40550000       0.25310000       0.51830000
H       -2.06180000       1.08940000       1.34870000
H       -1.74970000      -0.75580000      -1.02580000
