18
Properties=species:S:1:pos:R:3 gdb_41362=T pbc="F F F"
C        0.01240000       1.49120000      -0.06540000
O        1.46750000       1.45430000       0.13660000
C        1.28020000       0.18160000       0.82040000
C        1.79010000      -1.23610000       0.57290000
C        0.53340000      -1.94100000       1.21910000
N       -0.65730000      -1.06830000       0.82630000
C        0.01690000      -0.05410000       0.02630000
C        0.59150000      -0.67390000      -1.27200000
O        1.73190000      -1.43830000      -0.82800000
H       -0.49050000       1.98800000       0.77220000
H       -0.25340000       1.96300000      -1.01470000
H        1.10890000       0.36580000       1.88690000
H        2.75220000      -1.58040000       0.95180000
H        0.44980000      -2.95140000       0.81140000
H        0.60670000      -2.00800000       2.31010000
H       -1.30910000      -1.61810000       0.27510000
H       -0.14270000      -1.34030000      -1.74360000
H        0.92480000       0.06590000      -2.00660000
