21
Properties=species:S:1:pos:R:3 gdb_95163=T pbc="F F F"
C        0.08430000       1.54180000       0.09370000
C        0.01020000       0.02440000       0.02210000
C        0.61360000      -0.54200000      -1.27610000
C        0.94110000      -2.03150000      -1.17350000
O        0.50860000      -2.82060000      -2.25270000
C        2.20530000      -2.46020000      -0.46600000
C        0.85050000      -2.70210000       0.16760000
C        0.42840000      -1.86770000       1.35910000
O        0.69070000      -0.48910000       1.16340000
H        1.12890000       1.86890000       0.09130000
H       -0.42170000       1.99270000      -0.76540000
H       -0.38740000       1.90730000       1.00960000
H       -1.04550000      -0.29310000       0.07960000
H       -0.10930000      -0.41190000      -2.08800000
H        1.51130000       0.03120000      -1.54170000
H        1.06670000      -2.61230000      -3.01060000
H        2.72730000      -3.32250000      -0.86560000
H        2.83300000      -1.68670000      -0.03440000
H        0.48660000      -3.72450000       0.15810000
H       -0.64660000      -2.01980000       1.55800000
H        0.98160000      -2.15740000       2.25910000
