23
Properties=species:S:1:pos:R:3 gdb_108580=T pbc="F F F"
C        0.18980000       1.50600000       0.17430000
C       -0.09730000       0.02950000      -0.13190000
C        0.64680000      -0.48980000      -1.34340000
C        0.24360000       0.04050000      -2.71380000
O        0.61910000      -0.94210000      -3.67500000
C        0.66530000      -2.22020000      -3.04280000
C        0.93820000      -1.95960000      -1.57520000
C        2.06440000      -1.01300000      -1.21370000
C        3.21460000      -0.65940000      -2.13610000
H        1.25870000       1.67020000       0.34600000
H       -0.11620000       2.15410000      -0.65390000
H       -0.34990000       1.83530000       1.06760000
H        0.17130000      -0.57970000       0.73960000
H       -1.17720000      -0.10890000      -0.28100000
H       -0.84590000       0.21430000      -2.73010000
H        0.73780000       0.97490000      -3.00300000
H       -0.29200000      -2.75430000      -3.15740000
H        1.44090000      -2.80250000      -3.55360000
H        0.62620000      -2.71280000      -0.85910000
H        2.37250000      -1.11290000      -0.17390000
H        2.89220000      -0.56900000      -3.17460000
H        3.67170000       0.29030000      -1.83640000
H        3.99540000      -1.42700000      -2.08810000
