15
Properties=species:S:1:pos:R:3 gdb_66034=T pbc="F F F"
C       -0.26250000       1.59520000       0.04640000
C       -0.00620000       0.09670000       0.04500000
O        1.13360000      -0.26560000      -0.76200000
C        1.82450000      -0.88200000       0.34190000
C        0.66580000      -0.54950000       1.31940000
C        0.96950000       0.34170000       2.42230000
N        1.22250000       1.05790000       3.29350000
C       -1.20480000      -0.64730000      -0.37840000
N       -2.14610000      -1.23740000      -0.69560000
H        0.62700000       2.12430000       0.39420000
H       -0.49690000       1.92060000      -0.97020000
H       -1.10380000       1.84380000       0.69920000
H        1.98730000      -1.95210000       0.18300000
H        2.77470000      -0.38660000       0.55850000
H        0.13020000      -1.42470000       1.68870000
