20
Properties=species:S:1:pos:R:3 gdb_15985=T pbc="F F F"
C        0.04640000       1.58810000       0.06140000
C       -0.08050000       0.06160000       0.01300000
C        0.62880000      -0.55800000      -1.18370000
C        2.19090000      -0.56330000      -1.24110000
C        2.15260000      -2.01670000      -1.80110000
C        0.69910000      -2.08450000      -1.33120000
C        0.05170000      -3.11820000      -0.52040000
O       -0.30890000      -2.90150000      -1.89370000
H        1.09590000       1.89670000       0.11610000
H       -0.38750000       2.04870000      -0.83290000
H       -0.46840000       2.00270000       0.93350000
H        0.32610000      -0.37190000       0.93630000
H       -1.14220000      -0.21640000      -0.01750000
H        0.22710000      -0.13700000      -2.11450000
H        2.66900000       0.19370000      -1.86470000
H        2.62940000      -0.52260000      -0.23960000
H        2.21690000      -2.04220000      -2.89290000
H        2.85600000      -2.74350000      -1.38820000
H        0.57640000      -4.05160000      -0.31750000
H       -0.71150000      -2.84860000       0.20850000
