19
Properties=species:S:1:pos:R:3 gdb_47139=T pbc="F F F"
O       -0.07360000       0.02450000      -0.33560000
C       -0.04480000       1.22420000      -0.16190000
C       -1.27360000       2.12610000       0.00490000
C       -0.71320000       3.54650000       0.19520000
C        0.77930000       3.35690000       0.12440000
C        1.16910000       2.08500000      -0.07190000
C        2.55360000       1.59180000      -0.18380000
C        2.97380000       0.23700000       0.36440000
C        2.93080000       0.45240000      -1.11770000
H       -1.91300000       2.02910000      -0.87750000
H       -1.86260000       1.77670000       0.85810000
H       -1.06060000       4.24280000      -0.57820000
H       -1.01040000       3.99100000       1.15330000
H        1.46270000       4.19470000       0.22640000
H        3.29810000       2.37740000      -0.09120000
H        3.93680000       0.18730000       0.86040000
H        2.20020000      -0.38810000       0.79110000
H        2.12910000      -0.03190000      -1.66000000
H        3.86370000       0.55380000      -1.66110000
