19
Properties=species:S:1:pos:R:3 gdb_5804=T pbc="F F F"
C       -0.10140000       1.55940000       0.08120000
C        0.06090000       0.04460000       0.04660000
C        0.67070000      -0.50660000       1.32970000
N       -1.40810000      -0.54360000      -0.01830000
H       -1.86430000      -0.21550000      -0.87190000
H       -1.36040000      -1.56370000      -0.05710000
H       -1.97120000      -0.26510000       0.79080000
C        0.76220000      -0.45010000      -1.20570000
C        2.30520000       0.03960000      -1.34960000
O        2.72090000       0.75920000      -0.41610000
O        2.82800000      -0.38510000      -2.37560000
H        0.91830000       1.95480000       0.07730000
H       -0.61960000       1.93130000      -0.81040000
H       -0.63240000       1.90260000       0.97690000
H        0.13980000      -0.16400000       2.22570000
H        0.70110000      -1.60250000       1.32510000
H        1.69870000      -0.13330000       1.33920000
H        0.77920000      -1.54720000      -1.23130000
H        0.23880000      -0.10140000      -2.10510000
