19
Properties=species:S:1:pos:R:3 gdb_34852=T pbc="F F F"
C       -0.04410000      -1.18260000      -0.07220000
C       -0.02220000       0.01940000      -0.02470000
C        0.00710000       1.46690000       0.03580000
C       -0.10780000       2.07400000       1.47690000
C        1.43570000       1.93860000       1.59230000
C        1.44040000       2.10240000       0.04720000
C        1.30200000       3.59140000      -0.28990000
O        0.58380000       4.29400000       0.71650000
C       -0.46240000       3.55900000       1.33930000
H       -0.06860000      -2.24300000      -0.11950000
H       -0.68440000       1.88780000      -0.70470000
H       -0.75580000       1.56610000       2.19330000
H        1.96810000       2.68620000       2.18370000
H        1.73190000       0.93290000       1.89300000
H        2.21600000       1.62070000      -0.55090000
H        2.28580000       4.07110000      -0.33900000
H        0.81940000       3.71080000      -1.27450000
H       -1.40770000       3.66990000       0.78210000
H       -0.59880000       4.01810000       2.32470000
