20
Properties=species:S:1:pos:R:3 gdb_122483=T pbc="F F F"
O       -0.19550000       1.51060000      -0.37580000
C       -0.04550000       0.17830000       0.09090000
C       -1.38590000      -0.52560000      -0.07340000
C       -1.34160000      -1.98310000       0.38260000
N       -2.66500000      -2.58910000       0.24410000
C       -2.96830000      -3.23110000      -1.02190000
C       -2.75950000      -4.06080000       0.21180000
C       -1.59890000      -4.90100000       0.33080000
C       -0.64510000      -5.62080000       0.47220000
H        0.64520000       1.96390000      -0.26540000
H        0.73150000      -0.35790000      -0.47890000
H        0.25920000       0.15900000       1.15050000
H       -2.14900000       0.01460000       0.49630000
H       -1.68090000      -0.47330000      -1.12820000
H       -0.57130000      -2.53610000      -0.17940000
H       -1.06370000      -2.04060000       1.44190000
H       -3.97360000      -3.08810000      -1.40870000
H       -2.18340000      -3.28010000      -1.77520000
H       -3.64010000      -4.44090000       0.72500000
H        0.19710000      -6.25740000       0.58580000
