18
Properties=species:S:1:pos:R:3 gdb_90828=T pbc="F F F"
O       -0.03940000       1.46010000      -0.02620000
C        0.04860000       0.04300000       0.01510000
C        0.72550000      -0.53200000       1.29770000
C       -0.40900000      -1.27960000       1.98900000
C       -1.58770000      -0.45650000       2.49720000
C       -2.24620000       0.07170000       1.20490000
C       -2.52650000      -1.31350000       1.70310000
N       -1.32470000      -1.81750000       0.88690000
C       -1.37410000      -0.51120000       0.10130000
H        0.85010000       1.81140000      -0.12910000
H        0.55520000      -0.33210000      -0.88520000
H        1.54320000      -1.21340000       1.04240000
H        1.13090000       0.27290000       1.91830000
H       -0.10110000      -2.07990000       2.66500000
H       -1.74440000       0.02870000       3.45250000
H       -2.88100000       0.94720000       1.20660000
H       -3.42050000      -1.87500000       1.93190000
H       -1.88000000      -0.63960000      -0.85680000
