17
Properties=species:S:1:pos:R:3 gdb_62298=T pbc="F F F"
C       -0.13370000       1.57770000      -0.02010000
C       -0.05930000       0.04860000      -0.01040000
C       -1.34410000      -0.55540000      -0.33460000
C       -2.40860000      -1.04770000      -0.60320000
C        1.17640000      -0.60990000      -0.69700000
C        2.10380000      -0.32690000       0.52730000
O        2.57620000      -1.69960000       0.63720000
C        1.16610000      -1.82120000       0.28450000
C        0.71060000      -0.62080000       1.16910000
H        0.83620000       2.02090000       0.22490000
H       -0.43920000       1.94390000      -1.00490000
H       -0.86750000       1.93390000       0.70930000
H       -3.34690000      -1.48430000      -0.84000000
H        1.45050000      -0.61650000      -1.75180000
H        2.80920000       0.48240000       0.70810000
H        0.73000000      -2.81110000       0.16990000
H        0.45690000      -0.63970000       2.22880000
