16
Properties=species:S:1:pos:R:3 gdb_5272=T pbc="F F F"
O       -0.07110000       1.42660000      -0.00130000
C        0.03680000       0.01720000      -0.06170000
C       -1.38570000      -0.53190000       0.06330000
N       -1.42620000      -1.98060000       0.01590000
C       -1.33050000      -2.77550000      -1.10820000
C       -1.35510000      -4.06680000      -0.65180000
N       -1.46040000      -4.09350000       0.71930000
C       -1.49740000      -2.83190000       1.08170000
H        0.81030000       1.80400000      -0.06970000
H        0.47920000      -0.32210000      -1.01080000
H        0.65400000      -0.38740000       0.75480000
H       -1.81690000      -0.20170000       1.01200000
H       -2.00530000      -0.12050000      -0.73900000
H       -1.26770000      -2.34960000      -2.09630000
H       -1.31070000      -4.97660000      -1.23120000
H       -1.58370000      -2.46280000       2.09370000
