16
Properties=species:S:1:pos:R:3 gdb_92867=T pbc="F F F"
C       -0.06340000       1.45190000      -0.13120000
N        0.01020000       0.00650000       0.02270000
C       -1.25550000      -0.66930000       0.20580000
C       -1.17420000      -2.14670000       0.36230000
C       -0.02670000      -2.82830000       0.33960000
C        1.25840000      -2.14260000       0.15370000
O        2.31730000      -2.72600000       0.12740000
C        1.24210000      -0.60490000      -0.01490000
O        2.28080000       0.00210000      -0.17070000
H        0.94980000       1.82850000      -0.25950000
H       -0.66810000       1.71690000      -1.00710000
H       -0.51760000       1.91220000       0.75470000
H       -1.77190000      -0.24890000       1.08590000
H       -1.92020000      -0.44030000      -0.64480000
H       -2.12600000      -2.65250000       0.49980000
H        0.01310000      -3.90650000       0.45550000
