15
Properties=species:S:1:pos:R:3 gdb_34802=T pbc="F F F"
C       -0.03040000      -1.20740000      -0.05600000
C       -0.02370000      -0.00600000      -0.02600000
C       -0.04860000       1.43980000      -0.02330000
C       -0.04410000       2.09300000       1.39510000
O        1.39570000       1.81930000       1.47400000
C        1.35600000       2.11960000       0.03800000
C        1.02270000       3.63470000       0.07500000
O       -0.33260000       3.96720000      -0.26680000
C       -0.02640000       3.61470000       1.09210000
H       -0.03130000      -2.26890000      -0.07720000
H       -0.75720000       1.84260000      -0.74640000
H       -0.61930000       1.71120000       2.23590000
H        2.22140000       1.76520000      -0.51780000
H        1.76940000       4.40770000      -0.06290000
H       -0.20250000       4.37030000       1.84860000
