15
Properties=species:S:1:pos:R:3 gdb_127369=T pbc="F F F"
C        0.03320000       1.44410000       0.01360000
N       -0.05820000      -0.01400000      -0.01280000
C       -0.36240000      -0.68580000      -1.18260000
N       -0.46290000      -1.95690000      -1.29760000
N       -0.24630000      -2.67260000      -0.15590000
C        0.06740000      -2.18780000       1.10410000
N        0.26610000      -2.87580000       2.15940000
C        0.17430000      -0.68210000       1.18700000
O        0.43900000      -0.08050000       2.20000000
H        1.03090000       1.75330000       0.33380000
H       -0.16980000       1.83010000      -0.98580000
H       -0.69000000       1.85420000       0.72220000
H       -0.52590000      -0.07680000      -2.06250000
H       -0.33340000      -3.66930000      -0.28260000
H        0.16660000      -3.87730000       1.97900000
