10
Properties=species:S:1:pos:R:3 gdb_431=T pbc="F F F"
O        0.08480000       1.41650000       0.17880000
C        0.00760000       0.02290000       0.06200000
C       -1.41610000      -0.51330000      -0.14590000
O       -1.01730000      -1.10580000      -1.42780000
C        0.24390000      -0.57560000      -1.34220000
O        1.11650000      -0.61100000      -2.14760000
H        0.99610000       1.68130000       0.00980000
H        0.57440000      -0.50320000       0.84240000
H       -1.76750000      -1.28060000       0.54490000
H       -2.16270000       0.26870000      -0.29220000
