16
Properties=species:S:1:pos:R:3 gdb_29900=T pbc="F F F"
C       -0.00470000       1.44660000      -0.02210000
N       -0.00380000      -0.00360000       0.01780000
C       -0.08980000      -0.85020000      -1.05390000
N       -0.06310000      -2.10970000      -0.69230000
C        0.04560000      -2.08770000       0.68270000
C        0.08340000      -0.79250000       1.13610000
C        0.10950000      -3.31080000       1.51650000
N        0.05230000      -4.46280000       0.79540000
O        0.20480000      -3.26740000       2.73290000
H        0.92210000       1.84670000       0.39890000
H       -0.08650000       1.77260000      -1.06050000
H       -0.85230000       1.84940000       0.53950000
H       -0.16910000      -0.47680000      -2.06480000
H        0.16260000      -0.38850000       2.13080000
H       -0.02910000      -4.42340000      -0.20700000
H        0.08600000      -5.34350000       1.27830000
