18
Properties=species:S:1:pos:R:3 gdb_11352=T pbc="F F F"
C        0.09210000       1.55350000      -0.10200000
C       -0.04590000       0.04060000       0.06830000
O        0.54950000      -0.62920000      -1.05320000
C        1.48180000      -1.60480000      -0.61030000
C        1.53820000      -1.45470000       0.88910000
C        2.45250000      -2.27140000       1.73840000
O        2.26520000      -1.93170000       3.09960000
C        0.66430000      -0.52820000       1.26660000
H        1.14680000       1.84350000      -0.10930000
H       -0.36370000       1.86880000      -1.04500000
H       -0.41100000       2.07950000       0.71630000
H       -1.12070000      -0.21030000       0.09610000
H        1.15220000      -2.61470000      -0.91050000
H        2.45820000      -1.43320000      -1.09180000
H        2.25350000      -3.34340000       1.55890000
H        3.49590000      -2.09750000       1.41920000
H        2.86830000      -2.46360000       3.62620000
H        0.47120000      -0.21410000       2.28300000
