19
Properties=species:S:1:pos:R:3 gdb_92253=T pbc="F F F"
O        0.01180000       1.40750000      -0.25730000
C       -0.01550000       0.02240000      -0.01510000
C        0.19040000      -0.52130000       1.44480000
C       -1.04410000      -1.46380000       1.27660000
C       -2.34660000      -0.98490000       1.97130000
C       -2.61900000      -0.03340000       0.76960000
C       -3.38660000      -0.63360000      -0.43220000
O       -2.15570000      -1.02700000      -1.09990000
C       -1.39160000      -0.59750000       0.01260000
H        0.92650000       1.68380000      -0.36790000
H        0.62790000      -0.52770000      -0.71820000
H        1.14350000      -1.01840000       1.63260000
H        0.04140000       0.26260000       2.19210000
H       -0.82070000      -2.52940000       1.22870000
H       -3.10630000      -1.76220000       2.09870000
H       -2.19990000      -0.48840000       2.93500000
H       -2.76490000       1.02940000       0.95610000
H       -4.02460000      -1.49720000      -0.20610000
H       -3.94820000       0.08440000      -1.03940000
