16
Properties=species:S:1:pos:R:3 gdb_11559=T pbc="F F F"
O        0.20660000       1.21490000      -0.26430000
C        0.02250000      -0.12600000       0.08820000
C       -1.44350000      -0.50910000      -0.00610000
O       -2.29990000       0.27340000      -0.34340000
O       -1.65310000      -1.78680000       0.33720000
C       -2.99560000      -2.25050000       0.27120000
C       -3.35830000      -3.16440000      -0.85860000
C       -3.17460000      -3.70520000       0.54700000
H       -0.67650000       1.55050000      -0.47950000
H        0.59580000      -0.79750000      -0.56890000
H        0.36490000      -0.32350000       1.11510000
H       -3.71210000      -1.52140000       0.62700000
H       -4.35710000      -3.09110000      -1.27310000
H       -2.57970000      -3.38890000      -1.57830000
H       -2.27650000      -4.28000000       0.74150000
H       -4.04520000      -4.01460000       1.11360000
