17
Properties=species:S:1:pos:R:3 gdb_38458=T pbc="F F F"
C        0.05070000       1.63640000      -0.01090000
C        1.56940000       1.45760000      -0.11270000
O        1.98030000       0.68300000       1.02650000
C        1.45490000      -0.00620000      -0.11540000
C       -0.08310000       0.07430000       0.03580000
C       -0.70640000      -0.64440000       1.25440000
O       -1.83370000      -1.33010000       0.72080000
C       -1.50690000      -1.56770000      -0.62010000
O       -0.81600000      -0.42020000      -1.07300000
H       -0.31210000       2.20380000       0.84940000
H       -0.39980000       2.01210000      -0.93230000
H        2.31140000       2.10690000      -0.56080000
H        2.06000000      -0.77960000      -0.57510000
H        0.01380000      -1.34680000       1.69820000
H       -1.05570000       0.03780000       2.03110000
H       -0.86790000      -2.46520000      -0.71960000
H       -2.42300000      -1.68860000      -1.20410000
