21
Properties=species:S:1:pos:R:3 gdb_56160=T pbc="F F F"
C        0.14770000       1.50080000      -0.00000000
C       -0.02710000      -0.00570000       0.09820000
O       -0.25390000      -0.55250000       1.15410000
C        0.10010000      -0.78190000      -1.20390000
C       -0.20820000      -2.27320000      -1.06160000
C       -0.05380000      -3.02320000      -2.36410000
O       -0.94570000      -2.49540000      -3.31780000
C        1.30400000      -3.50780000      -2.80230000
C        0.23570000      -4.49800000      -2.35430000
H        1.08860000       1.75220000      -0.50150000
H       -0.65830000       1.93140000      -0.60560000
H        0.12780000       1.94310000       0.99670000
H       -0.55220000      -0.32620000      -1.95830000
H        1.12120000      -0.63070000      -1.58380000
H        0.44480000      -2.71550000      -0.30430000
H       -1.23310000      -2.39860000      -0.69570000
H       -0.80160000      -2.93880000      -4.15910000
H        1.54130000      -3.47040000      -3.86160000
H        2.15840000      -3.34040000      -2.15450000
H        0.36290000      -5.00360000      -1.40290000
H       -0.23470000      -5.10740000      -3.12010000
