23
Properties=species:S:1:pos:R:3 gdb_103636=T pbc="F F F"
C       -0.50600000       1.31260000       0.32620000
C       -0.00810000      -0.12690000       0.15340000
C        0.96440000      -0.57410000       1.24780000
C        2.25960000       0.22790000       1.26540000
O        0.32090000      -0.53800000       2.55930000
C        0.43470000      -1.96790000       2.74380000
C       -0.90840000      -2.65300000       2.91880000
C        1.16460000      -2.11940000       1.38150000
O        0.64410000      -2.98460000       0.40770000
H        0.29710000       2.04240000       0.18800000
H       -1.28740000       1.54120000      -0.40450000
H       -0.92260000       1.45060000       1.32790000
H       -0.88030000      -0.79260000       0.16010000
H        0.47340000      -0.25680000      -0.82340000
H        2.06860000       1.28410000       1.47430000
H        2.93000000      -0.14840000       2.04370000
H        2.77470000       0.15380000       0.30120000
H        1.07540000      -2.19290000       3.60730000
H       -1.58330000      -2.45350000       2.07970000
H       -0.77880000      -3.73610000       3.01110000
H       -1.39710000      -2.28450000       3.82560000
H        2.21550000      -2.39980000       1.48120000
H       -0.29060000      -2.79190000       0.28540000
