23
Properties=species:S:1:pos:R:3 gdb_120967=T pbc="F F F"
C       -0.36450000       1.28640000       0.52930000
O       -0.16610000      -0.06530000       0.19640000
C       -1.37260000      -0.79090000       0.08770000
C       -1.03800000      -2.24150000      -0.25660000
C       -0.22170000      -2.97010000       0.85240000
C       -1.16710000      -3.96250000       1.51380000
C       -2.46990000      -3.44560000       2.07310000
C       -2.43290000      -4.05090000       0.69150000
C       -2.30780000      -3.11120000      -0.49990000
H        0.61940000       1.75850000       0.58870000
H       -0.96470000       1.81210000      -0.23070000
H       -0.87170000       1.39970000       1.50100000
H       -1.94260000      -0.71810000       1.02980000
H       -2.00800000      -0.35580000      -0.70350000
H       -0.44140000      -2.19230000      -1.17270000
H        0.61460000      -3.51640000       0.40300000
H        0.21570000      -2.25110000       1.55240000
H       -0.73720000      -4.84680000       1.97220000
H       -2.93890000      -4.03180000       2.85660000
H       -2.61690000      -2.37610000       2.18370000
H       -2.93850000      -4.99840000       0.53910000
H       -3.20200000      -2.49200000      -0.64470000
H       -2.18800000      -3.70240000      -1.41410000
