12
Properties=species:S:1:pos:R:3 gdb_123519=T pbc="F F F"
C       -0.02690000       1.30210000       0.00960000
N        1.19470000       1.81020000       0.00100000
C        2.07670000       0.77080000      -0.01350000
C        1.39090000      -0.42740000      -0.01380000
N        1.70010000      -1.73400000      -0.02430000
C        0.67440000      -2.53920000      -0.01900000
N       -0.66460000      -2.17780000      -0.00380000
N       -0.99910000      -0.94920000       0.00650000
N        0.02310000      -0.05420000       0.00160000
H       -0.95720000       1.84710000       0.02160000
H        3.14460000       0.91990000      -0.02290000
H        0.84280000      -3.60960000      -0.02670000
