21
Properties=species:S:1:pos:R:3 gdb_123104=T pbc="F F F"
C       -0.01330000       1.46270000      -0.14640000
C       -0.02290000      -0.05470000      -0.07410000
O       -1.36300000      -0.49500000       0.02880000
C       -1.49390000      -1.90210000       0.10040000
C       -2.97670000      -2.22680000       0.14980000
N       -3.63870000      -1.71360000      -1.03440000
C       -4.80450000      -2.28400000      -1.48760000
N       -5.43380000      -1.55430000      -2.49370000
O       -5.26250000      -3.32250000      -1.04670000
H        1.01290000       1.83410000      -0.22090000
H       -0.57130000       1.81070000      -1.02060000
H       -0.47440000       1.89220000       0.74750000
H        0.45100000      -0.49000000      -0.97000000
H        0.55610000      -0.40420000       0.79690000
H       -1.03020000      -2.37460000      -0.78080000
H       -0.99170000      -2.29430000       0.99960000
H       -3.13510000      -3.30650000       0.17960000
H       -3.40720000      -1.80360000       1.06900000
H       -3.45880000      -0.74240000      -1.23650000
H       -4.84500000      -1.01860000      -3.11440000
H       -6.13670000      -2.09800000      -2.97150000
