19
Properties=species:S:1:pos:R:3 gdb_10886=T pbc="F F F"
C        0.02310000       1.51720000      -0.04540000
N        0.03600000       0.05410000       0.01410000
C       -1.11350000      -0.70410000       0.64070000
C       -0.14780000      -1.91780000       0.66670000
C        0.64510000      -0.68720000       1.20390000
C        2.09540000      -0.57710000       1.57340000
C       -0.60490000      -0.40090000       2.09010000
O       -0.69630000       0.87170000       2.67670000
H        1.03770000       1.85350000      -0.28830000
H       -0.61720000       1.80830000      -0.88660000
H       -0.31310000       2.03960000       0.85370000
H       -2.12690000      -0.65790000       0.23750000
H       -0.36100000      -2.72760000       1.36720000
H        0.16710000      -2.26230000      -0.31640000
H        2.72950000      -0.80080000       0.70990000
H        2.33190000       0.43230000       1.92520000
H        2.34260000      -1.27970000       2.37590000
H       -0.83640000      -1.18070000       2.83220000
H       -1.55480000       0.94420000       3.10520000
