19
Properties=species:S:1:pos:R:3 gdb_62727=T pbc="F F F"
C       -0.14370000       1.52920000      -0.03940000
C        0.05760000       0.03820000       0.06510000
O       -1.08370000      -0.70980000      -0.30620000
C        1.38780000      -0.68020000      -0.23710000
C        2.65020000       0.09480000      -0.10750000
C        2.84310000       0.53020000       1.14240000
C        1.73860000       0.09000000       2.07600000
C        0.77530000      -0.67840000       1.17580000
O        0.17400000      -1.77590000       1.77360000
H        0.76130000       2.07590000       0.23120000
H       -0.40700000       1.80700000      -1.06750000
H       -0.96040000       1.85030000       0.61510000
H       -1.13940000      -0.72830000      -1.26760000
H        1.32410000      -1.54970000      -0.88460000
H        3.31630000       0.28160000      -0.94290000
H        3.67710000       1.13800000       1.47390000
H        2.10510000      -0.57490000       2.86870000
H        1.25140000       0.93470000       2.57920000
H       -0.61830000      -1.96300000       1.25140000
