21
Properties=species:S:1:pos:R:3 gdb_93139=T pbc="F F F"
O        0.24060000       1.42600000       0.11800000
C        0.03690000       0.02330000      -0.03360000
C        0.71280000      -0.76160000       1.10010000
C        0.26960000      -0.41030000       2.50360000
C       -0.82300000       0.22810000       2.93840000
C       -1.97310000       0.81080000       2.14250000
C       -2.41410000       0.00270000       0.92940000
C       -2.51150000       0.63760000      -0.44040000
C       -1.43080000      -0.36710000      -0.15010000
H        0.36200000       1.60160000       1.05740000
H        0.53060000      -0.24230000      -0.97790000
H        0.55820000      -1.83640000       0.92650000
H        1.79860000      -0.60850000       1.03740000
H        0.97620000      -0.73100000       3.26800000
H       -0.89290000       0.38280000       4.01410000
H       -2.82930000       0.93610000       2.81520000
H       -1.71090000       1.82950000       1.82740000
H       -3.15670000      -0.75700000       1.15790000
H       -3.32770000       0.35160000      -1.09480000
H       -2.19510000       1.67130000      -0.52520000
H       -1.55640000      -1.35660000      -0.58410000
