19
Properties=species:S:1:pos:R:3 gdb_99712=T pbc="F F F"
C        0.68640000      -0.59050000       1.08680000
O       -0.06090000      -0.79680000      -0.09410000
C        0.63870000      -0.46360000      -1.28400000
C        1.81420000      -1.31290000      -1.51280000
C        2.76480000      -2.02520000      -1.71190000
C        3.91570000      -2.87990000      -1.96260000
C       -0.36830000      -0.60250000      -2.41410000
C       -1.21160000       0.52670000      -2.81080000
O       -0.08100000       0.13440000      -3.59670000
H        1.59060000      -1.21280000       1.11110000
H        0.98500000       0.46400000       1.19540000
H        0.03840000      -0.86330000       1.92270000
H        0.96160000       0.59110000      -1.24980000
H        4.13450000      -2.93660000      -3.03450000
H        4.81220000      -2.50210000      -1.45930000
H        3.73700000      -3.90020000      -1.60630000
H       -0.72750000      -1.61830000      -2.57460000
H       -2.18410000       0.34070000      -3.26290000
H       -1.11210000       1.47890000      -2.29170000
