16
Properties=species:S:1:pos:R:3 gdb_124155=T pbc="F F F"
C       -0.00350000       1.45300000       0.02670000
C        0.01540000      -0.00060000       0.00970000
C        0.04000000      -1.20590000      -0.00440000
C        0.03190000      -2.61930000      -0.02020000
N        1.15340000      -3.36440000      -0.03220000
N        0.70300000      -4.60920000      -0.05680000
C        1.59880000      -5.74710000      -0.01390000
N       -0.61930000      -4.75350000      -0.05480000
C       -1.06870000      -3.50140000      -0.03430000
H        1.01410000       1.85830000       0.03650000
H       -0.51380000       1.85510000      -0.85570000
H       -0.52230000       1.83420000       0.91340000
H        1.91380000      -5.95070000       1.01410000
H        1.06490000      -6.60990000      -0.41010000
H        2.47600000      -5.52630000      -0.62260000
H       -2.12350000      -3.28040000      -0.03800000
