16
Properties=species:S:1:pos:R:3 gdb_49671=T pbc="F F F"
N       -0.10660000       1.22540000       0.31850000
C       -0.02900000       0.00770000       0.00270000
O        1.13030000      -0.63840000      -0.35990000
C        0.84440000      -1.91500000      -0.95620000
C       -0.61260000      -2.21360000      -0.64530000
C       -1.04440000      -2.21780000       0.80940000
C       -0.09600000      -2.32690000       1.95130000
O       -0.33750000      -2.98010000       2.93700000
C       -1.16610000      -0.95340000      -0.05340000
H        0.80350000       1.68040000       0.23090000
H        0.99870000      -1.84410000      -2.03920000
H        1.55130000      -2.64440000      -0.55060000
H       -1.17280000      -2.82590000      -1.34050000
H       -1.98700000      -2.71810000       1.00560000
H        0.85710000      -1.76910000       1.85070000
H       -2.15430000      -0.55930000      -0.24350000
