16
Properties=species:S:1:pos:R:3 gdb_49208=T pbc="F F F"
N       -0.16300000       1.31860000      -0.28820000
C       -0.01440000       0.11510000       0.07300000
C       -1.17200000      -0.85960000      -0.04290000
C       -1.09790000      -1.97190000       0.95440000
C        0.08950000      -2.39050000       1.40390000
C        1.34380000      -1.72110000       0.92080000
O        1.15810000      -0.33900000       0.58940000
C        0.19960000      -3.50430000       2.35730000
O        1.24770000      -3.92570000       2.79220000
H        0.70770000       1.83700000      -0.15550000
H       -2.09850000      -0.28780000       0.03080000
H       -1.16410000      -1.28810000      -1.05750000
H       -2.01800000      -2.44200000       1.29280000
H        2.11150000      -1.74840000       1.69680000
H        1.74890000      -2.24720000       0.04450000
H       -0.77540000      -3.94760000       2.65820000
