14
Properties=species:S:1:pos:R:3 gdb_13587=T pbc="F F F"
C        0.39040000       1.70610000      -0.23710000
C       -0.07550000       0.32130000       0.12020000
O        0.86630000      -0.73440000       0.04570000
C        0.35350000      -0.42630000       1.33980000
C        1.30530000       0.17160000       2.32160000
O        2.34490000       0.72660000       2.04620000
C        0.90120000       0.07720000       3.79920000
O       -0.10680000      -0.45360000       4.18540000
H        1.37010000       1.91510000       0.19410000
H        0.46270000       1.79590000      -1.32600000
H       -0.33110000       2.45180000       0.11250000
H       -1.06870000       0.05080000      -0.24530000
H       -0.33860000      -1.15190000       1.76080000
H        1.64220000       0.55670000       4.47270000
