18
Properties=species:S:1:pos:R:3 gdb_71672=T pbc="F F F"
O       -0.09150000       1.43290000       0.04400000
C        0.00940000       0.04650000       0.05170000
C       -1.21470000      -0.79980000       0.47700000
C       -0.12900000      -1.89230000       0.61930000
C        0.87140000      -0.79230000       1.07820000
C        2.22030000      -1.11730000       0.45980000
C        1.69590000      -1.49720000      -0.91070000
C        0.48140000      -0.68990000      -1.21470000
N        0.34260000      -2.11170000      -0.79530000
H        0.71860000       1.79900000      -0.32650000
H       -1.62370000      -0.48390000       1.43970000
H       -2.01200000      -0.96150000      -0.25190000
H       -0.28990000      -2.82230000       1.16060000
H        0.81180000      -0.46730000       2.11440000
H        2.90280000      -0.26020000       0.42500000
H        2.73420000      -1.94590000       0.95890000
H        2.33330000      -1.90200000      -1.68910000
H        0.15100000      -0.40420000      -2.20790000
