18
Properties=species:S:1:pos:R:3 gdb_39968=T pbc="F F F"
C        0.16280000       1.55760000       0.10490000
C        1.37040000       0.62420000       0.17600000
C        0.00910000       0.08880000      -0.06660000
O       -0.68670000      -0.70360000       0.96940000
C       -1.41840000      -1.26400000      -0.04200000
N       -2.60420000      -1.66550000      -0.18670000
C       -2.79160000      -1.56910000      -1.66940000
C       -1.74570000      -0.49890000      -2.17250000
C       -0.59820000      -0.77460000      -1.18780000
H       -0.18760000       1.98720000       1.03650000
H        0.04490000       2.19320000      -0.76620000
H        2.07800000       0.62070000      -0.64650000
H        1.80500000       0.44880000       1.15380000
H       -2.63210000      -2.54370000      -2.14970000
H       -3.82140000      -1.26690000      -1.87560000
H       -1.47880000      -0.61490000      -3.22560000
H       -2.15850000       0.50440000      -2.02600000
H        0.12910000      -1.49770000      -1.56860000
