16
Properties=species:S:1:pos:R:3 gdb_8568=T pbc="F F F"
O        0.01980000      -0.05530000       0.05890000
C       -0.00290000       1.15810000       0.02070000
C       -1.31280000       1.98000000      -0.00550000
N       -1.14100000       3.44480000      -0.05190000
C       -0.09440000       3.75470000      -1.09800000
C        0.98560000       3.39950000      -0.04990000
C       -0.09500000       3.82030000       0.97300000
N        1.11540000       1.94720000      -0.00380000
H       -1.89350000       1.65460000      -0.87470000
H       -1.89390000       1.71030000       0.88220000
H       -0.13920000       3.14850000      -2.00650000
H       -0.12930000       4.81780000      -1.35040000
H        1.97150000       3.86950000      -0.06460000
H       -0.13000000       4.89730000       1.15740000
H       -0.14020000       3.27290000       1.91800000
H        2.01490000       1.49270000       0.01030000
