14
Properties=species:S:1:pos:R:3 gdb_2834=T pbc="F F F"
C       -0.23920000       1.48010000       0.16640000
C        0.32040000       0.08980000      -0.15940000
C        0.97890000      -0.54170000       1.04000000
O        0.12500000      -1.06100000       2.06230000
C        0.92960000      -1.99140000       1.33690000
C        0.23390000      -2.91340000       0.46420000
N       -0.29630000      -3.66650000      -0.23430000
H        0.55120000       2.16000000       0.50230000
H       -0.71010000       1.92380000      -0.71480000
H       -0.99020000       1.41800000       0.95930000
H       -0.47810000      -0.56650000      -0.51910000
H        1.06480000       0.15920000      -0.96240000
H        1.85110000      -0.01440000       1.43260000
H        1.73950000      -2.44610000       1.90470000
