20
Properties=species:S:1:pos:R:3 gdb_58693=T pbc="F F F"
C        0.89570000      -1.48390000       0.40580000
C       -0.01220000      -0.80630000      -0.62250000
O        0.03770000      -1.47820000      -1.87940000
C       -1.47540000      -0.61600000      -0.20680000
C       -2.23620000       0.34970000      -1.10820000
C       -1.84290000       1.78930000      -0.83920000
O       -1.53010000       2.58750000      -1.68530000
C       -2.21260000      -1.74510000       0.42630000
N       -1.88110000      -0.54250000       1.20810000
H        1.88270000      -1.62120000      -0.04230000
H        1.02140000      -0.87580000       1.30760000
H        0.52610000      -2.47270000       0.70080000
H        0.40650000       0.18460000      -0.83890000
H       -0.40650000      -2.32710000      -1.77100000
H       -2.06550000       0.11780000      -2.16190000
H       -3.30900000       0.26600000      -0.89290000
H       -1.86910000       2.06780000       0.23780000
H       -3.26950000      -1.88200000       0.21400000
H       -1.67890000      -2.66570000       0.64750000
H       -1.09540000      -0.73850000       1.82190000
