17
Properties=species:S:1:pos:R:3 gdb_42665=T pbc="F F F"
O       -0.01070000       0.05890000       0.10630000
C       -0.02180000       1.25930000       0.03760000
C       -1.20750000       2.16660000      -0.01900000
C       -0.99990000       3.47670000       0.69120000
C        0.18270000       3.68930000       1.61840000
N        1.29570000       2.78700000       1.28730000
C        1.17890000       2.22790000      -0.06670000
C        0.64290000       3.24240000      -1.08710000
N       -0.80380000       3.40690000      -0.75190000
H       -2.19800000       1.76460000      -0.19660000
H       -1.90060000       4.01170000       0.98290000
H        0.47140000       4.75050000       1.55030000
H       -0.14150000       3.52220000       2.65400000
H        2.18860000       3.24770000       1.41030000
H        2.09890000       1.71510000      -0.34340000
H        1.14490000       4.21370000      -1.04240000
H        0.70660000       2.86560000      -2.11340000
