25
Properties=species:S:1:pos:R:3 gdb_122973=T pbc="F F F"
C       -0.09820000       1.54100000       0.03860000
C       -0.02240000       0.02330000       0.05080000
O       -1.33510000      -0.49450000       0.00610000
C       -1.37810000      -1.90560000       0.01540000
C       -2.83620000      -2.34450000      -0.02310000
C       -3.00480000      -3.86720000       0.00440000
O       -2.38160000      -4.44090000       1.15620000
C       -4.47500000      -4.29050000      -0.10650000
C       -4.66320000      -5.80820000      -0.15710000
H        0.90580000       1.97470000       0.07090000
H       -0.59960000       1.89220000      -0.86790000
H       -0.66180000       1.90390000       0.90290000
H        0.56090000      -0.34100000      -0.81260000
H        0.49690000      -0.33140000       0.95770000
H       -0.83530000      -2.31270000      -0.85620000
H       -0.88550000      -2.30710000       0.91420000
H       -3.36400000      -1.89980000       0.83210000
H       -3.30770000      -1.93780000      -0.92530000
H       -2.45030000      -4.30220000      -0.83870000
H       -2.83990000      -4.09770000       1.93220000
H       -5.02280000      -3.87220000       0.75110000
H       -4.91000000      -3.82470000      -0.99940000
H       -4.19600000      -6.23230000      -1.05280000
H       -4.20050000      -6.28280000       0.71220000
H       -5.72370000      -6.07660000      -0.17500000
