14
Properties=species:S:1:pos:R:3 gdb_21302=T pbc="F F F"
C        0.01450000       1.34590000       0.00630000
O       -0.00840000      -0.08360000       0.03530000
C       -1.22450000      -0.64330000       0.03170000
N       -2.35010000       0.02690000       0.00230000
O       -3.34610000      -0.94340000      -0.00140000
C       -2.76820000      -2.16970000       0.03000000
C       -1.41500000      -2.06130000       0.05060000
N       -0.39540000      -3.01180000       0.15060000
H        1.06740000       1.62890000       0.01260000
H       -0.47740000       1.72140000      -0.89630000
H       -0.49660000       1.75640000       0.88240000
H       -3.44430000      -3.00940000       0.03240000
H       -0.60280000      -3.88080000      -0.32290000
H        0.48920000      -2.64410000      -0.17540000
