21
Properties=species:S:1:pos:R:3 gdb_93885=T pbc="F F F"
C       -0.75860000       1.23370000       0.12260000
C        0.09990000      -0.02570000       0.01920000
C        1.17500000       0.00980000      -1.09590000
C        2.28480000      -0.97690000      -0.64840000
C        1.87200000      -1.47320000       0.76360000
O        2.94860000      -1.62800000       1.67400000
C        0.89700000      -0.40920000       1.29900000
C        1.64010000       0.77660000       1.88410000
O        1.33410000       1.31970000       2.91480000
H       -0.14950000       2.12410000       0.31120000
H       -1.31140000       1.40040000      -0.80780000
H       -1.48600000       1.15490000       0.93650000
H       -0.56670000      -0.87540000      -0.18060000
H        0.74780000      -0.24520000      -2.06960000
H        1.57890000       1.02370000      -1.19100000
H        2.40800000      -1.81230000      -1.34390000
H        3.25530000      -0.47680000      -0.57240000
H        1.31850000      -2.42000000       0.66860000
H        3.55380000      -2.28790000       1.32190000
H        0.24320000      -0.79450000       2.08550000
H        2.49670000       1.15170000       1.28040000
