15
Properties=species:S:1:pos:R:3 gdb_60699=T pbc="F F F"
C        0.01180000       1.53340000      -0.06820000
C       -0.01840000       0.02670000       0.08030000
O       -0.05730000      -0.53550000       1.15230000
C        0.00260000      -0.72380000      -1.16570000
C        0.03030000      -1.35830000      -2.19270000
C        0.03890000      -2.11930000      -3.44500000
O        0.07000000      -3.50440000      -3.26710000
C       -1.19870000      -1.70570000      -4.25940000
O       -2.00050000      -2.52680000      -4.61690000
H        0.91380000       1.84040000      -0.60870000
H       -0.84680000       1.87150000      -0.65850000
H       -0.00830000       1.99650000       0.91920000
H        0.91690000      -1.79570000      -4.03280000
H       -0.78040000      -3.83000000      -3.60460000
H       -1.30010000      -0.62680000      -4.48060000
