21
Properties=species:S:1:pos:R:3 gdb_78107=T pbc="F F F"
C       -0.14740000       1.59130000       0.07030000
C        0.03400000       0.07420000       0.01920000
C       -1.30810000      -0.61970000      -0.23410000
C        1.13970000      -0.49080000      -0.94530000
C        1.76500000      -1.24100000       0.23860000
O        2.15580000      -2.57170000       0.20130000
C        2.21750000      -0.29220000       1.30620000
O        2.71160000       1.00060000       1.07530000
C        0.75240000      -0.60720000       1.20660000
H        0.80190000       2.10010000       0.23730000
H       -0.58430000       1.95700000      -0.86690000
H       -0.83160000       1.87000000       0.88040000
H       -1.74030000      -0.29280000      -1.18680000
H       -1.19490000      -1.70840000      -0.26720000
H       -2.02640000      -0.38120000       0.55910000
H        0.73300000      -1.16770000      -1.69970000
H        1.78410000       0.24930000      -1.42950000
H        3.05780000      -2.61740000      -0.13540000
H        2.68860000      -0.80910000       2.14470000
H        3.60350000       0.92150000       0.72080000
H        0.23140000      -1.05330000       2.04760000
