17
Properties=species:S:1:pos:R:3 gdb_12771=T pbc="F F F"
C        0.03860000       1.41450000       0.09040000
N        0.14500000      -0.03400000      -0.01450000
C        0.56540000      -0.68820000       0.96260000
O        1.01900000      -0.25710000       2.22130000
C        1.42590000      -1.61500000       2.52690000
C        0.22310000      -2.48890000       2.56880000
C        0.86570000      -2.13230000       1.21870000
C        1.33170000      -3.13270000       0.20430000
H        0.55840000       1.87270000      -0.75770000
H       -1.01570000       1.70300000       0.01160000
H        0.44580000       1.82650000       1.02100000
H        2.37790000      -1.74990000       3.02210000
H        0.39030000      -3.51910000       2.87080000
H       -0.73310000      -2.06780000       2.86370000
H        0.50730000      -3.43140000      -0.45120000
H        2.12370000      -2.71580000      -0.42510000
H        1.71660000      -4.03420000       0.69050000
