14
Properties=species:S:1:pos:R:3 gdb_46829=T pbc="F F F"
O       -0.04020000      -0.03580000      -0.05810000
C       -0.03200000       1.17040000      -0.02220000
N       -1.11110000       1.99900000       0.13940000
C       -0.84340000       3.42600000       0.08260000
C        0.67110000       3.47830000      -0.03460000
O        1.34010000       2.88060000       1.06500000
C        1.18370000       2.09660000      -0.14900000
C        2.35850000       1.68300000      -0.84550000
C        3.33340000       1.31310000      -1.44130000
H       -2.00980000       1.61400000       0.38130000
H       -1.31440000       3.89730000      -0.78970000
H       -1.18650000       3.94540000       0.98530000
H        1.16260000       4.32690000      -0.49950000
H        4.19760000       0.98100000      -1.96240000
