12
Properties=species:S:1:pos:R:3 gdb_129112=T pbc="F F F"
N       -0.04390000       1.22470000       0.00740000
C       -0.02620000      -0.02550000       0.00070000
C       -1.27720000      -0.93960000       0.00290000
C       -0.60640000      -2.26860000      -0.00800000
C        0.72960000      -2.09260000      -0.01470000
O        1.15790000      -0.79720000      -0.01020000
N        1.34340000      -3.29540000      -0.02460000
N        0.47120000      -4.20740000      -0.02450000
O       -0.87870000      -3.55330000      -0.01340000
H        0.89640000       1.62080000       0.00420000
H       -1.88770000      -0.74680000       0.89020000
H       -1.89770000      -0.73730000      -0.87520000
