19
Properties=species:S:1:pos:R:3 gdb_116901=T pbc="F F F"
O       -0.16060000       1.40830000      -0.05200000
C       -0.10160000       0.01170000      -0.27930000
C       -1.32200000      -0.60140000       0.41750000
C       -1.39390000      -2.04750000       0.25850000
C       -1.43730000      -3.24540000       0.13230000
C       -1.48630000      -4.68710000      -0.08370000
O       -2.75200000      -5.12320000      -0.60350000
C       -0.37110000      -5.16790000      -1.03210000
O       -0.49720000      -6.54920000      -1.26880000
H        0.60520000       1.81590000      -0.46640000
H       -0.13320000      -0.23030000      -1.35220000
H        0.81620000      -0.43210000       0.13430000
H       -1.28650000      -0.33510000       1.48070000
H       -2.22540000      -0.13030000       0.01130000
H       -1.37840000      -5.22370000       0.86610000
H       -3.02670000      -4.47700000      -1.26440000
H       -0.42590000      -4.57920000      -1.96400000
H        0.60980000      -4.98980000      -0.58060000
H       -1.43980000      -6.69540000      -1.42570000
