20
Properties=species:S:1:pos:R:3 gdb_64452=T pbc="F F F"
C        0.17070000       1.49120000      -0.13050000
C       -0.00770000      -0.02140000       0.00570000
C       -1.50090000      -0.38570000       0.11460000
O        0.54650000      -0.57260000      -1.19840000
C        0.86600000      -1.94380000      -1.12040000
C        1.92910000      -2.13630000      -0.06250000
O        1.47110000      -1.65350000       1.20690000
C        0.71210000      -0.52330000       1.26920000
N        0.51770000       0.06760000       2.37160000
H        1.22860000       1.73760000      -0.25180000
H       -0.36980000       1.84130000      -1.01430000
H       -0.20730000       1.99570000       0.75870000
H       -2.02080000      -0.04550000      -0.78530000
H       -1.65170000      -1.46450000       0.21570000
H       -1.93610000       0.09520000       0.99270000
H       -0.01630000      -2.56080000      -0.89240000
H        1.24350000      -2.24000000      -2.10390000
H        2.17640000      -3.19090000       0.08840000
H        2.84030000      -1.59370000      -0.34470000
H        1.02560000      -0.40750000       3.12040000
