22
Properties=species:S:1:pos:R:3 gdb_86384=T pbc="F F F"
C        0.07930000       1.56860000      -0.03200000
C        0.01230000       0.04150000       0.02360000
C        0.62240000      -0.66220000      -1.21280000
C        1.16540000      -2.03130000      -0.72710000
O        2.31310000      -2.47770000      -1.42700000
C        1.42350000      -1.83800000       0.76640000
C        1.63680000      -3.04380000       1.63960000
N        2.24970000      -0.61500000       0.95460000
C        0.78050000      -0.57550000       1.18510000
H        1.12200000       1.89950000      -0.07390000
H       -0.43760000       1.95650000      -0.91600000
H       -0.38580000       2.02190000       0.85050000
H       -1.03710000      -0.26570000       0.13360000
H       -0.09250000      -0.76830000      -2.03240000
H        1.46550000      -0.07650000      -1.59150000
H        0.41650000      -2.82020000      -0.86520000
H        3.00820000      -1.84160000      -1.21490000
H        2.50120000      -3.61960000       1.29170000
H        1.80920000      -2.75850000       2.68280000
H        0.76540000      -3.70760000       1.61200000
H        2.72110000      -0.67340000       1.85460000
H        0.42830000      -0.42990000       2.20290000
