21
Properties=species:S:1:pos:R:3 gdb_110908=T pbc="F F F"
O       -0.14440000       1.45760000      -0.01560000
C        0.01500000       0.03380000      -0.09430000
C       -1.36670000      -0.58770000       0.03720000
C       -1.39340000      -2.12670000       0.16510000
C       -2.87800000      -2.35730000       0.57530000
C       -2.41890000      -1.64890000       1.88210000
C       -1.05670000      -2.36460000       1.66880000
C       -2.11650000      -0.22820000       1.38180000
O       -1.32570000       0.46660000       2.32480000
H        0.72560000       1.86310000      -0.08150000
H        0.46110000      -0.24850000      -1.05920000
H        0.68080000      -0.31980000       0.70280000
H       -1.95980000      -0.26200000      -0.82450000
H       -0.91980000      -2.70360000      -0.63150000
H       -3.65810000      -1.88240000      -0.02900000
H       -3.11540000      -3.41140000       0.73450000
H       -2.97650000      -1.72450000       2.81550000
H       -1.09700000      -3.42380000       1.93340000
H       -0.16860000      -1.89990000       2.10000000
H       -3.04300000       0.32670000       1.17560000
H       -0.94670000       1.22050000       1.85180000
