18
Properties=species:S:1:pos:R:3 gdb_17574=T pbc="F F F"
O       -0.10150000       1.38620000       0.04610000
C        0.04340000       0.00220000       0.06370000
C        0.90640000      -0.81240000      -0.97760000
C        0.72800000      -1.92110000       0.11400000
C        0.84530000      -0.76810000       1.15010000
C       -0.78950000      -2.18010000      -0.00150000
C       -1.73430000      -1.67750000       1.06320000
C       -1.29430000      -0.75020000      -0.04120000
H        0.77480000       1.78230000       0.08710000
H        0.47150000      -0.99390000      -1.96410000
H        1.93550000      -0.44840000      -1.06750000
H        1.38900000      -2.78500000       0.16180000
H        1.87390000      -0.40330000       1.21560000
H        0.43770000      -0.88450000       2.15430000
H       -1.13090000      -2.93040000      -0.70570000
H       -2.75480000      -2.03920000       0.97890000
H       -1.41860000      -1.53430000       2.08950000
H       -2.00680000      -0.39120000      -0.77460000
