21
Properties=species:S:1:pos:R:3 gdb_38683=T pbc="F F F"
C       -0.00290000       1.54150000      -0.21460000
C        1.29740000       0.79700000      -0.02780000
C        2.15340000       0.87270000       1.24490000
C        1.54130000       0.12230000       2.46080000
C        0.87120000      -1.18090000       1.96620000
C       -0.41880000      -0.59510000       1.34240000
C       -0.77640000       0.45110000       2.39080000
C        0.32780000       0.86210000       3.01210000
C       -0.02510000       0.04690000      -0.00340000
H       -0.34880000       2.17790000       0.59150000
H       -0.22780000       1.91560000      -1.20830000
H        1.88530000       0.68380000      -0.93400000
H        3.12280000       0.41150000       1.02090000
H        2.36570000       1.91540000       1.51250000
H        2.31860000      -0.04620000       3.21220000
H        1.47920000      -1.73690000       1.24560000
H        0.63510000      -1.83360000       2.81220000
H       -1.20660000      -1.33670000       1.18620000
H       -1.77640000       0.84790000       2.52170000
H        0.39480000       1.65250000       3.75150000
H       -0.25330000      -0.56280000      -0.87270000
