21
Properties=species:S:1:pos:R:3 gdb_101900=T pbc="F F F"
C       -0.15460000       1.27000000       0.51260000
C       -0.41550000      -0.22630000       0.32680000
C       -1.66970000      -0.51710000      -0.50000000
O       -1.59510000       0.02300000      -1.81510000
C       -1.98470000      -2.01250000      -0.58820000
O       -2.23410000      -2.50910000       0.71640000
C       -2.54760000      -3.87850000       0.74910000
C       -3.98360000      -4.16250000       0.31970000
O       -4.38840000      -5.24690000      -0.00390000
H        0.77870000       1.44480000       1.05590000
H       -0.09010000       1.77650000      -0.45430000
H       -0.96470000       1.74140000       1.07960000
H        0.44460000      -0.70040000      -0.17130000
H       -0.52070000      -0.72590000       1.29530000
H       -2.53050000      -0.01920000      -0.03710000
H       -0.77980000      -0.29620000      -2.21850000
H       -2.85510000      -2.15430000      -1.24620000
H       -1.13440000      -2.55190000      -1.04300000
H       -1.85950000      -4.48840000       0.14490000
H       -2.45000000      -4.20510000       1.79300000
H       -4.64510000      -3.26610000       0.36660000
