20
Properties=species:S:1:pos:R:3 gdb_70359=T pbc="F F F"
C       -0.09800000       1.46590000       0.09110000
C       -0.00950000      -0.03970000       0.01980000
C       -0.50040000      -0.88770000       1.14290000
N        0.94650000      -0.71250000       0.94090000
C        1.57630000      -1.82930000       0.21230000
C        0.91820000      -1.95020000      -1.16500000
O       -0.26080000      -2.79700000      -1.23370000
C       -1.05880000      -1.69550000      -1.72630000
C        0.04900000      -0.68610000      -1.36470000
H        0.71050000       1.93510000      -0.48100000
H       -1.05000000       1.82230000      -0.31900000
H       -0.02140000       1.80740000       1.12620000
H       -0.89250000      -0.40830000       2.03710000
H       -0.93100000      -1.85960000       0.92040000
H        2.63940000      -1.59230000       0.08920000
H        1.50150000      -2.76310000       0.77860000
H        1.62770000      -2.21240000      -1.95910000
H       -1.24410000      -1.78930000      -2.80400000
H       -2.01450000      -1.60340000      -1.19950000
H        0.33540000       0.03110000      -2.13530000
