20
Properties=species:S:1:pos:R:3 gdb_121673=T pbc="F F F"
C        0.14710000       1.53940000       0.00850000
C        0.03090000       0.01290000       0.00160000
C       -1.42270000      -0.47160000       0.01280000
C       -1.54040000      -1.99560000       0.00590000
C       -2.97430000      -2.49840000       0.01710000
O       -3.93480000      -1.77440000       0.03110000
C       -3.11580000      -4.03730000       0.01000000
C       -4.49750000      -4.49970000       0.02140000
N       -5.58430000      -4.88870000       0.03020000
H        1.19350000       1.85930000       0.00030000
H       -0.34310000       1.97680000      -0.86800000
H       -0.32640000       1.96750000       0.89870000
H        0.54330000      -0.39030000      -0.88240000
H        0.55990000      -0.39950000       0.87140000
H       -1.94270000      -0.07680000       0.89300000
H       -1.95920000      -0.06760000      -0.85330000
H       -1.03800000      -2.42650000      -0.87280000
H       -1.02130000      -2.43550000       0.87030000
H       -2.60140000      -4.43670000      -0.87280000
H       -2.58380000      -4.44630000       0.87780000
