19
Properties=species:S:1:pos:R:3 gdb_42061=T pbc="F F F"
C        0.03300000       1.54760000      -0.04970000
O        1.36960000       2.05290000      -0.12100000
C        2.13690000       1.79550000       1.05890000
C        1.56790000       2.51470000       2.25060000
C        0.70680000       2.02980000       3.15610000
C        0.11560000       0.70280000       3.35450000
C       -0.17960000      -0.35960000       2.57220000
C       -0.03810000      -0.69930000       1.15300000
C        0.01800000       0.04650000       0.04070000
H       -0.51070000       1.99520000       0.79010000
H       -0.44180000       1.88210000      -0.97630000
H        2.21120000       0.71890000       1.25070000
H        3.13890000       2.16720000       0.82700000
H        1.83940000       3.56440000       2.33710000
H        0.40250000       2.72660000       3.93700000
H       -0.18020000       0.56170000       4.39370000
H       -0.60690000      -1.19280000       3.12940000
H       -0.01990000      -1.77800000       0.99770000
H        0.13480000      -0.48020000      -0.90370000
