19
Properties=species:S:1:pos:R:3 gdb_32664=T pbc="F F F"
C       -0.15480000       1.27750000      -0.12940000
C       -0.21120000      -0.20260000       0.25670000
N        0.65110000      -0.53250000       1.38720000
C        1.94560000      -0.95330000       1.32180000
N        2.47710000      -1.14840000       2.50890000
C        1.47430000      -0.83930000       3.39310000
C        0.33200000      -0.45080000       2.73410000
C       -1.01160000      -0.05740000       3.24380000
O       -2.06020000      -0.93360000       2.81990000
H        0.86300000       1.57310000      -0.40040000
H       -0.80850000       1.46580000      -0.98660000
H       -0.48470000       1.91560000       0.69530000
H       -1.22810000      -0.49890000       0.52430000
H        0.10350000      -0.82440000      -0.58700000
H        2.44120000      -1.11040000       0.37400000
H        1.62100000      -0.91010000       4.46140000
H       -0.95780000       0.00270000       4.33990000
H       -1.31530000       0.93200000       2.88350000
H       -1.79690000      -1.82740000       3.06610000
