17
Properties=species:S:1:pos:R:3 gdb_88890=T pbc="F F F"
O       -0.03350000       1.42660000       0.43230000
C        0.06320000       0.07920000       0.11890000
C       -0.40940000      -0.97540000       1.07740000
C       -1.21160000      -0.69090000      -0.19250000
N       -2.37430000       0.09420000      -0.02480000
C       -3.41620000      -0.14730000      -0.69450000
N       -4.57280000       0.63160000      -0.62790000
C       -4.75300000       1.85040000       0.00430000
O       -3.93250000       2.45870000       0.63960000
H       -0.97920000       1.62330000       0.52080000
H        0.93930000      -0.13480000      -0.48600000
H        0.12040000      -1.92070000       1.12790000
H       -0.85140000      -0.63660000       2.00740000
H       -1.20740000      -1.44080000      -0.98570000
H       -3.52160000      -0.98710000      -1.39380000
H       -5.36260000       0.29170000      -1.15470000
H       -5.78840000       2.21240000      -0.15840000
