17
Properties=species:S:1:pos:R:3 gdb_48632=T pbc="F F F"
O       -0.09810000      -0.02440000       0.11350000
C        0.01960000       1.14590000      -0.14530000
C        1.31070000       1.91150000      -0.02150000
C        1.50860000       2.81780000       1.22740000
C        2.17320000       3.71970000       0.16890000
C        3.60830000       3.26830000      -0.08030000
O        3.72230000       1.86350000       0.12810000
C        2.58570000       1.11490000      -0.29150000
O        1.34880000       3.09840000      -0.86650000
H       -0.83490000       1.77470000      -0.48010000
H        0.56450000       3.23040000       1.58530000
H        2.11230000       2.42730000       2.04610000
H        2.05350000       4.80490000       0.20950000
H        3.89010000       3.54530000      -1.10740000
H        4.30860000       3.73920000       0.61800000
H        2.59190000       0.17900000       0.27260000
H        2.63300000       0.88660000      -1.36640000
