22
Properties=species:S:1:pos:R:3 gdb_94674=T pbc="F F F"
C       -0.09070000       1.52620000       0.06440000
C        0.21960000       0.05480000      -0.01080000
C        0.71500000      -0.52250000      -1.33040000
C        1.17630000      -1.95100000      -0.96890000
C        1.64530000      -1.86130000       0.49850000
O        2.99630000      -1.41090000       0.61010000
C        0.78390000      -0.75920000       1.10500000
C        1.14080000      -0.25120000       2.47690000
N       -0.63760000      -0.92750000       0.70820000
H        0.76690000       2.12410000      -0.26350000
H       -0.93670000       1.77830000      -0.58600000
H       -0.34940000       1.83990000       1.08030000
H       -0.05850000      -0.51760000      -2.10560000
H        1.55440000       0.08340000      -1.69080000
H        0.33650000      -2.64530000      -1.03800000
H        1.97450000      -2.32030000      -1.62030000
H        1.51490000      -2.81650000       1.02900000
H        3.56280000      -2.08520000       0.22370000
H        2.19760000       0.02260000       2.51940000
H        0.54300000       0.62230000       2.75420000
H        0.96500000      -1.02690000       3.23200000
H       -1.21190000      -0.42220000       1.38120000
