14
Properties=species:S:1:pos:R:3 gdb_43554=T pbc="F F F"
N       -0.14020000       1.17880000      -0.74610000
C       -0.02880000       0.07800000      -0.14930000
N        0.97480000      -0.64220000       0.49070000
C        0.18360000      -1.85720000       0.68090000
C        0.11280000      -2.34530000       2.05680000
N        0.07700000      -2.75800000       3.13500000
C       -1.05850000      -1.04560000       0.11060000
C       -2.15050000      -0.76040000       1.00960000
C       -3.05590000      -0.53200000       1.76450000
H        0.73990000       1.69450000      -0.78610000
H        1.97480000      -0.58150000       0.36630000
H        0.46210000      -2.68960000       0.02470000
H       -1.41750000      -1.48310000      -0.82480000
H       -3.85200000      -0.32370000       2.43620000
