21
Properties=species:S:1:pos:R:3 gdb_17272=T pbc="F F F"
C        0.04910000       1.52850000      -0.31830000
C        0.16190000       0.04190000      -0.05510000
C        1.48860000      -0.62410000       0.09200000
N        0.58150000      -0.52150000       1.22920000
C        0.95350000       0.35540000       2.33460000
C        1.67060000      -0.42790000       3.41080000
C        3.17050000      -0.58150000       3.37780000
C        2.52210000       0.29080000       4.42500000
H        0.90090000       2.09050000       0.07220000
H        0.00010000       1.71120000      -1.39710000
H       -0.86330000       1.94200000       0.12630000
H       -0.63830000      -0.53830000      -0.51470000
H        1.66770000      -1.62380000      -0.29590000
H        2.36390000       0.02610000       0.08120000
H        1.59080000       1.20290000       2.02710000
H        0.02890000       0.78340000       2.74340000
H        1.11010000      -1.28670000       3.76780000
H        3.59990000      -1.52810000       3.68630000
H        3.71480000      -0.08830000       2.57890000
H        2.63230000       1.36610000       4.32570000
H        2.50470000      -0.05760000       5.45160000
