22
Properties=species:S:1:pos:R:3 gdb_114333=T pbc="F F F"
C       -0.09460000       1.59560000       0.04320000
C        0.03810000       0.09250000      -0.03890000
C        0.60410000      -0.64090000      -1.20470000
C        1.41930000       0.11150000      -2.25140000
C        2.81060000       0.29910000      -1.59300000
C        3.50710000       1.59170000      -1.98750000
O        4.76560000       1.62910000      -1.33030000
C        2.54640000       0.16090000      -0.07180000
N        1.31430000      -0.64020000       0.09540000
H        0.60400000       2.13700000      -0.59790000
H       -1.10760000       1.88930000      -0.25250000
H        0.06090000       1.94250000       1.07120000
H       -0.75830000      -0.41790000       0.50310000
H        0.16040000      -1.58830000      -1.50180000
H        1.48430000      -0.45940000      -3.18110000
H        0.96870000       1.07800000      -2.50770000
H        3.45760000      -0.53010000      -1.90100000
H        3.62750000       1.63450000      -3.08230000
H        2.88030000       2.45200000      -1.69510000
H        5.20130000       2.45620000      -1.55550000
H        3.36630000      -0.36130000       0.42640000
H        2.46050000       1.14260000       0.40970000
