20
Properties=species:S:1:pos:R:3 gdb_61944=T pbc="F F F"
C       -0.04830000       1.61210000      -0.08600000
C        0.00120000       0.08160000       0.00250000
C        0.75820000      -0.42810000       1.24050000
C        2.25480000      -0.05290000       1.25850000
C        2.95770000      -0.63110000       2.39730000
C        3.51120000      -1.11980000       3.34560000
C       -1.42740000      -0.51880000       0.01200000
C       -2.19070000      -0.20640000      -1.19420000
N       -2.77710000       0.04750000      -2.15740000
H        0.95180000       2.04170000      -0.18520000
H       -0.63180000       1.93610000      -0.95240000
H       -0.51030000       2.04040000       0.81170000
H        0.50770000      -0.30270000      -0.89300000
H        0.28290000      -0.04060000       2.15050000
H        0.68000000      -1.52020000       1.29200000
H        2.72670000      -0.39210000       0.32660000
H        2.37150000       1.03690000       1.27980000
H        4.01330000      -1.54530000       4.17870000
H       -1.37820000      -1.60880000       0.11370000
H       -1.98340000      -0.14570000       0.88120000
