15
Properties=species:S:1:pos:R:3 gdb_85589=T pbc="F F F"
C        0.07240000       1.53230000      -0.08930000
C        0.09920000       0.02130000       0.03910000
O        0.81290000      -0.51590000      -1.09730000
C        0.95960000      -1.85880000      -1.19180000
O        1.07090000      -2.42090000      -2.23510000
O        0.96640000      -2.52140000      -0.00650000
C        1.43500000      -1.82130000       1.14880000
C        0.76310000      -0.46920000       1.32040000
O        0.76630000       0.13900000       2.35880000
H        1.09010000       1.92710000      -0.14380000
H       -0.47020000       1.82670000      -0.98960000
H       -0.41750000       1.95840000       0.78830000
H       -0.92430000      -0.38250000       0.02610000
H        1.22170000      -2.45760000       2.00940000
H        2.52220000      -1.67640000       1.09120000
