18
Properties=species:S:1:pos:R:3 gdb_52797=T pbc="F F F"
C        0.01490000       1.47750000      -0.00970000
C        0.03140000       0.02260000       0.01090000
C        0.02920000      -1.18160000       0.03080000
C        0.04640000      -2.62030000       0.02880000
C        1.17860000      -3.25990000      -0.76140000
C       -0.46570000      -3.33740000       1.25700000
C       -1.30910000      -3.35780000      -0.00300000
C       -2.54130000      -2.62610000      -0.05940000
N       -3.54170000      -2.04790000      -0.11530000
H        0.89400000       1.87540000      -0.52830000
H       -0.87560000       1.85320000      -0.52530000
H        0.01180000       1.89040000       1.00500000
H        2.14530000      -2.96000000      -0.34620000
H        1.11530000      -4.35180000      -0.72520000
H        1.14670000      -2.94560000      -1.80840000
H        0.01360000      -4.26820000       1.53980000
H       -0.82270000      -2.73130000       2.07990000
H       -1.32110000      -4.28230000      -0.57100000
