15
Properties=species:S:1:pos:R:3 gdb_67873=T pbc="F F F"
O        0.20730000       1.35720000      -0.36830000
C        0.13230000      -0.01020000      -0.11200000
C        0.84600000      -0.82490000      -1.15630000
C        0.10480000      -1.83590000      -1.60970000
C       -1.26730000      -1.89730000      -0.97780000
C       -1.21220000      -0.79510000       0.07560000
O       -0.72280000      -1.28560000       1.37340000
C        0.39980000      -0.49800000       1.33220000
O        1.19100000      -0.29930000       2.19670000
H        0.09320000       1.83970000       0.45790000
H        1.85720000      -0.57980000      -1.45560000
H        0.43370000      -2.56080000      -2.34570000
H       -2.06460000      -1.73180000      -1.71250000
H       -1.46940000      -2.86360000      -0.50060000
H       -2.12070000      -0.21010000       0.21880000
