14
Properties=species:S:1:pos:R:3 gdb_43513=T pbc="F F F"
N       -0.06560000       1.30560000       0.00740000
C       -0.01620000       0.04700000       0.00780000
N       -1.12710000      -0.78460000       0.01160000
C       -0.81020000      -2.12500000      -0.00270000
N       -1.51770000      -3.17180000      -0.04610000
C        0.72590000      -2.13750000       0.03050000
O        1.09780000      -0.73960000      -0.00790000
C        1.27630000      -2.78980000       1.20770000
C        1.73980000      -3.32930000       2.17420000
H        0.87090000       1.70320000       0.00520000
H       -2.05810000      -0.40200000       0.00560000
H       -2.51670000      -2.96490000      -0.06850000
H        1.10640000      -2.61190000      -0.88060000
H        2.14440000      -3.81090000       3.03040000
