19
Properties=species:S:1:pos:R:3 gdb_61495=T pbc="F F F"
C        0.62880000      -0.32240000      -1.44490000
C       -0.00300000       0.08420000      -0.09970000
C       -1.46470000      -0.40980000       0.00140000
C       -2.18950000       0.15810000       1.23370000
O       -2.25150000       1.55870000       1.18320000
C       -3.57950000      -0.42730000       1.34580000
O       -4.56520000       0.27050000       1.37000000
C        0.79360000      -0.40490000       1.02470000
C        1.44170000      -0.83260000       1.94320000
H        1.65420000       0.04790000      -1.51940000
H        0.65380000      -1.41140000      -1.55010000
H        0.04970000       0.09210000      -2.27590000
H       -0.03430000       1.17950000      -0.04680000
H       -2.00500000      -0.09040000      -0.89720000
H       -1.47810000      -1.50620000       0.03280000
H       -1.63340000      -0.16970000       2.13100000
H       -3.19500000       1.78000000       1.23220000
H       -3.64560000      -1.53310000       1.40320000
H        2.02420000      -1.19260000       2.75490000
