16
Properties=species:S:1:pos:R:3 gdb_103012=T pbc="F F F"
C        0.14920000       1.12510000      -0.36950000
O       -0.09380000      -0.14450000       0.24960000
C       -1.39030000      -0.61490000       0.10390000
C       -2.40410000       0.03320000       0.89730000
N       -3.23290000       0.56100000       1.50910000
C       -1.79870000      -1.24240000      -1.25640000
O       -0.89470000      -1.17950000      -2.29640000
C       -1.44500000      -2.12970000      -0.09470000
O       -0.21150000      -2.76800000      -0.20310000
H        1.20090000       1.35370000      -0.18960000
H       -0.04630000       1.07110000      -1.44380000
H       -0.47330000       1.90170000       0.08950000
H       -2.83610000      -1.13040000      -1.55570000
H       -0.23190000      -1.86410000      -2.11220000
H       -2.20630000      -2.70190000       0.42570000
H        0.45000000      -2.17120000       0.17730000
