21
Properties=species:S:1:pos:R:3 gdb_57633=T pbc="F F F"
C       -0.06070000       1.54820000      -0.04810000
C        0.00640000       0.01360000       0.03070000
N        0.78170000      -0.35960000       1.22300000
C       -1.39990000      -0.63720000       0.12810000
C       -2.21460000      -0.18010000       1.31940000
C       -3.22810000       0.93190000       1.18830000
C       -3.68890000      -0.49240000       1.36860000
C        0.65370000      -0.49530000      -1.20670000
N        1.18290000      -0.91420000      -2.14620000
H        0.94220000       1.97080000      -0.16170000
H       -0.66070000       1.86850000      -0.90330000
H       -0.50540000       1.93790000       0.86870000
H        0.92260000      -1.36600000       1.24580000
H        1.70600000       0.06060000       1.18230000
H       -1.94360000      -0.43500000      -0.80180000
H       -1.25870000      -1.72550000       0.16870000
H       -1.68000000      -0.23220000       2.26190000
H       -3.34700000       1.62250000       2.01600000
H       -3.36330000       1.38500000       0.21150000
H       -4.13020000      -0.99270000       0.51240000
H       -4.12160000      -0.78020000       2.32020000
