20
Properties=species:S:1:pos:R:3 gdb_90008=T pbc="F F F"
C       -0.38940000       1.45810000      -0.06000000
C       -0.10580000      -0.04030000      -0.01700000
C        1.10220000      -0.48650000      -0.89700000
C        1.97850000      -0.55290000       0.37890000
C        3.14370000      -1.55870000       0.59490000
N        4.02300000      -0.39820000       0.77300000
C        3.04540000       0.54660000       0.59230000
O        3.05300000       1.75140000       0.60280000
C        0.69210000      -0.50270000       1.24080000
H        0.52550000       2.03260000       0.11990000
H       -0.79050000       1.75200000      -1.03640000
H       -1.12420000       1.73870000       0.70280000
H       -1.02610000      -0.60270000      -0.19790000
H        0.95990000      -1.47550000      -1.34250000
H        1.42730000       0.20950000      -1.67510000
H        3.05040000      -2.19200000       1.48380000
H        3.38830000      -2.17800000      -0.27500000
H        5.01040000      -0.31500000       0.96310000
H        0.70430000       0.18090000       2.09400000
H        0.39780000      -1.49780000       1.58750000
