17
Properties=species:S:1:pos:R:3 gdb_15610=T pbc="F F F"
C       -0.00460000       1.40120000       0.03280000
N       -0.00310000      -0.05310000      -0.01110000
C        0.56220000      -0.67550000       0.93240000
O        1.18240000      -0.08170000       2.00830000
C        1.70590000      -1.09820000       2.86740000
C        1.33950000      -2.39110000       2.20120000
C        0.67170000      -2.13930000       1.07170000
C        0.09440000      -3.06960000       0.05910000
H        1.01400000       1.81240000       0.03450000
H       -0.53020000       1.78740000      -0.84390000
H       -0.50440000       1.78420000       0.93280000
H        2.79090000      -0.95740000       2.96860000
H        1.26180000      -0.98650000       3.86610000
H        1.59690000      -3.36020000       2.60820000
H        0.27860000      -4.11400000       0.32140000
H       -0.98480000      -2.91040000      -0.03420000
H        0.51990000      -2.86910000      -0.92950000
