15
Properties=species:S:1:pos:R:3 gdb_131907=T pbc="F F F"
C       -0.00650000       1.45450000       0.12580000
C       -0.00790000      -0.03080000      -0.01570000
C       -0.08000000      -0.82960000      -1.15290000
C       -0.04560000      -2.18050000      -0.74990000
C        0.04680000      -2.16300000       0.62680000
N        0.06910000      -0.86370000       1.06030000
N        0.11570000      -3.21800000       1.56820000
O        0.19380000      -2.89730000       2.76090000
O        0.09360000      -4.37020000       1.14570000
H        0.90970000       1.81630000       0.60660000
H       -0.07520000       1.92170000      -0.85840000
H       -0.85410000       1.80670000       0.72510000
H       -0.14970000      -0.46080000      -2.16470000
H       -0.08190000      -3.06610000      -1.36190000
H        0.13230000      -0.62490000       2.03740000
