16
Properties=species:S:1:pos:R:3 gdb_33397=T pbc="F F F"
C       -0.13820000      -1.14860000       0.14970000
C       -0.04090000       0.04560000       0.08060000
C        0.03790000       1.50230000      -0.03370000
C        1.43440000       1.96870000       0.00310000
N        2.51900000       2.36560000       0.01000000
C       -0.66160000       2.01420000      -1.31560000
C       -2.19970000       1.90130000      -1.28030000
O       -2.33800000       3.32600000      -1.10460000
C       -0.92990000       3.53410000      -1.33880000
H       -0.21270000      -2.20610000       0.22090000
H       -0.47360000       1.95440000       0.82820000
H       -0.16650000       1.59600000      -2.19220000
H       -2.64900000       1.55580000      -2.21950000
H       -2.63010000       1.33220000      -0.44820000
H       -0.45770000       4.12900000      -0.54820000
H       -0.73850000       4.01230000      -2.30710000
