16
Properties=species:S:1:pos:R:3 gdb_65696=T pbc="F F F"
C        0.02370000       1.55730000      -0.37690000
C       -0.01230000       0.08740000      -0.04080000
C        1.20730000      -0.76070000      -0.14400000
C        0.62740000      -0.46370000       1.23760000
C        1.31310000       0.41300000       2.14230000
N        1.86070000       1.13410000       2.86270000
O       -1.19360000      -0.57430000      -0.45590000
C       -2.31380000      -0.37780000       0.28590000
O       -3.36640000      -0.84270000      -0.02320000
H        0.97270000       2.00270000      -0.07090000
H       -0.09630000       1.68930000      -1.45600000
H       -0.78060000       2.10110000       0.12830000
H        1.08270000      -1.77490000      -0.50310000
H        2.13920000      -0.27780000      -0.41130000
H        0.10220000      -1.28430000       1.71430000
H       -2.13160000       0.23260000       1.18880000
