19
Properties=species:S:1:pos:R:3 gdb_34329=T pbc="F F F"
C       -0.00930000      -1.18970000       0.01080000
C       -0.01090000       0.01420000       0.01200000
C       -0.01640000       1.45180000       0.01120000
C       -0.45540000       2.18310000      -1.30720000
C        0.88030000       2.99270000      -1.30920000
C        1.31840000       2.28580000       0.00540000
C        0.92870000       2.90720000       1.36360000
C       -0.40030000       3.60740000       1.31870000
C       -0.37870000       2.10800000       1.37710000
H       -0.00700000      -2.25130000       0.00890000
H       -0.54990000       1.49480000      -2.14830000
H       -1.37760000       2.76310000      -1.22720000
H        1.52370000       2.75240000      -2.15840000
H        0.78500000       4.07980000      -1.25140000
H        2.27500000       1.76520000       0.00460000
H        1.62740000       3.08000000       2.17320000
H       -0.68980000       4.08360000       2.25050000
H       -0.73770000       4.14540000       0.43890000
H       -0.84130000       1.55750000       2.18690000
