21
Properties=species:S:1:pos:R:3 gdb_114059=T pbc="F F F"
C        0.12470000       1.57660000       0.09430000
C       -0.01200000       0.07980000       0.10550000
C        1.11940000      -0.83240000      -0.33560000
C        0.56210000      -0.96630000       1.05480000
O        1.32700000      -0.73610000       2.18710000
C       -0.73960000      -1.76890000       1.03160000
C       -1.32840000      -0.72270000       0.02370000
C       -2.55750000      -0.00310000       0.54660000
O       -3.61510000      -0.94960000       0.60940000
H        1.12280000       1.87050000       0.43400000
H       -0.01950000       1.98800000      -0.91200000
H       -0.60150000       2.05790000       0.75820000
H        0.96150000      -1.60350000      -1.08800000
H        2.08820000      -0.34330000      -0.38220000
H        2.02070000      -1.40350000       2.22700000
H       -0.67500000      -2.80920000       0.69580000
H       -1.26670000      -1.73720000       1.98780000
H       -1.55220000      -1.12600000      -0.97080000
H       -2.34330000       0.42160000       1.54140000
H       -2.81380000       0.83610000      -0.12050000
H       -4.38850000      -0.51200000       0.97650000
