21
Properties=species:S:1:pos:R:3 gdb_120466=T pbc="F F F"
C        0.65190000       1.50300000       0.14150000
O        0.80650000       0.10380000       0.17220000
C       -0.19610000      -0.54050000       0.92810000
C        0.06990000      -2.03200000       0.90980000
C        1.24650000      -2.63370000       1.73930000
C        0.30910000      -3.76570000       2.27510000
C        0.30550000      -4.14530000       3.74920000
C       -0.86520000      -2.92800000       1.74180000
O       -2.03340000      -2.87880000       2.00490000
H        0.70440000       1.94270000       1.15030000
H        1.46640000       1.90920000      -0.46320000
H       -0.30850000       1.79830000      -0.30980000
H       -0.19790000      -0.16560000       1.96670000
H       -1.19640000      -0.33650000       0.51150000
H        0.10170000      -2.38020000      -0.12960000
H        2.12600000      -2.94950000       1.17820000
H        1.55970000      -1.95640000       2.53920000
H        0.40950000      -4.66290000       1.65000000
H        0.21580000      -3.25700000       4.38300000
H       -0.54030000      -4.80150000       3.97460000
H        1.22680000      -4.66730000       4.02600000
