16
Properties=species:S:1:pos:R:3 gdb_19257=T pbc="F F F"
O        0.51830000       1.21290000       0.12080000
C        0.11200000      -0.11230000      -0.03590000
C       -1.37530000      -0.48940000       0.02010000
C       -2.12730000      -0.00070000      -1.18360000
C       -1.25670000      -1.21600000      -1.32430000
C        0.23590000      -0.80730000      -1.45060000
C        0.53490000       0.04940000      -2.64230000
O        0.36640000       1.25120000      -2.67500000
H        0.31600000       1.67610000      -0.70470000
H        0.67090000      -0.70230000       0.69670000
H       -1.89100000      -0.81400000       0.91580000
H       -3.19280000      -0.20510000      -1.16740000
H       -1.86310000       0.93220000      -1.67180000
H       -1.64170000      -2.18530000      -1.61290000
H        0.90250000      -1.67390000      -1.44150000
H        0.89550000      -0.48290000      -3.54960000
