22
Properties=species:S:1:pos:R:3 gdb_22455=T pbc="F F F"
C        0.07890000       1.51000000       0.27280000
C       -0.13690000       0.01070000       0.47450000
C       -1.49660000      -0.50020000       0.06970000
N       -2.34560000       0.34800000      -0.36760000
O       -3.57090000      -0.25650000      -0.72190000
C       -1.78600000      -1.98800000       0.17470000
C       -1.66440000      -2.66150000      -1.20170000
O       -0.88110000      -2.53590000       1.12320000
C       -1.28130000      -3.77410000       1.66200000
H        1.08810000       1.78950000       0.58990000
H       -0.04520000       1.79280000      -0.77580000
H       -0.63960000       2.09450000       0.85310000
H        0.61850000      -0.56320000      -0.07990000
H        0.02390000      -0.26870000       1.52190000
H       -4.09630000       0.50390000      -0.99060000
H       -2.81770000      -2.10570000       0.53670000
H       -0.64660000      -2.55520000      -1.58880000
H       -1.89970000      -3.72780000      -1.13920000
H       -2.36410000      -2.19760000      -1.90010000
H       -1.29300000      -4.57940000       0.91340000
H       -0.55680000      -4.03480000       2.43750000
H       -2.28200000      -3.71260000       2.11730000
