14
Properties=species:S:1:pos:R:3 gdb_57230=T pbc="F F F"
C       -0.02870000       1.54940000       0.02140000
C        0.00490000       0.00270000       0.01230000
N        0.68790000      -0.46280000       1.22830000
C       -1.38340000      -0.51190000       0.04680000
N       -2.46820000      -0.90600000       0.06890000
C        0.64820000      -0.47800000      -1.22630000
C        1.24270000      -0.86930000      -2.20240000
C        1.91160000      -1.31180000      -3.30800000
N        2.48520000      -1.68540000      -4.24610000
H        0.99500000       1.93120000      -0.01560000
H       -0.57720000       1.93010000      -0.84150000
H       -0.50760000       1.88460000       0.94290000
H        0.73660000      -1.47780000       1.23850000
H        1.64360000      -0.11650000       1.22190000
