15
Properties=species:S:1:pos:R:3 gdb_75415=T pbc="F F F"
C        0.04620000       1.49950000      -0.24800000
C       -0.01840000       0.00980000      -0.07790000
C       -1.14540000      -0.71370000      -0.10490000
C       -1.20890000      -2.18820000       0.06360000
O        0.02530000      -2.86580000       0.26730000
C        1.22570000      -2.23540000       0.31280000
O        2.22290000      -2.86940000       0.48780000
C        1.25610000      -0.69900000       0.13390000
O        2.32490000      -0.13450000       0.17420000
H        0.67970000       1.76060000      -1.10150000
H       -0.94790000       1.92660000      -0.39810000
H        0.50650000       1.96580000       0.62870000
H       -2.10950000      -0.23260000      -0.25840000
H       -1.85630000      -2.43660000       0.91700000
H       -1.68270000      -2.64230000      -0.81860000
