16
Properties=species:S:1:pos:R:3 gdb_15922=T pbc="F F F"
N       -0.02500000      -1.13680000      -0.45480000
C        0.00230000      -0.00920000      -0.19960000
C        0.04640000       1.41680000       0.08240000
C       -0.52690000       2.35760000      -1.03430000
C        0.82480000       3.13040000      -1.08120000
C        1.36270000       2.28800000       0.09700000
C        0.90090000       2.77080000       1.49490000
N       -0.21030000       1.78430000       1.48210000
H       -0.78610000       1.84340000      -1.96140000
H       -1.39660000       2.92870000      -0.69900000
H        1.37050000       2.95340000      -2.01040000
H        0.78060000       4.20870000      -0.90800000
H        2.35720000       1.85290000       0.02110000
H        1.60190000       2.59600000       2.31730000
H        0.59990000       3.82630000       1.51480000
H       -1.14170000       2.13560000       1.67880000
