17
Properties=species:S:1:pos:R:3 gdb_52184=T pbc="F F F"
O        0.15320000       0.23600000      -0.75620000
C        0.24640000       1.41730000      -0.61990000
O        0.99110000       1.98370000       0.34950000
C        1.04610000       3.41300000       0.42820000
C        2.47630000       3.88770000       0.26070000
C        3.10330000       3.76880000      -1.16450000
C        3.46010000       5.26260000      -1.07740000
O        4.13220000       5.99500000      -1.73980000
C        2.67360000       5.43730000       0.23510000
H       -0.26130000       2.16500000      -1.26150000
H        0.39680000       3.85720000      -0.33990000
H        0.65270000       3.69840000       1.40970000
H        3.10330000       3.40990000       1.01660000
H        3.94580000       3.08540000      -1.29240000
H        2.37540000       3.56550000      -1.95870000
H        1.74600000       6.00250000       0.08440000
H        3.22210000       5.89350000       1.06260000
