14
Properties=species:S:1:pos:R:3 gdb_129919=T pbc="F F F"
N       -0.04750000       1.42160000       0.01810000
C       -0.03960000       0.02180000       0.01970000
C       -1.08970000      -0.84820000       0.05990000
N       -0.60900000      -2.15810000       0.04400000
C        0.75270000      -2.10410000      -0.00670000
N        1.81390000      -2.89580000      -0.04520000
C        2.81160000      -1.96270000      -0.08350000
N        2.45520000      -0.67550000      -0.07210000
N        1.09960000      -0.79410000      -0.02140000
H        0.45890000       1.79430000       0.81650000
H        0.40300000       1.79190000      -0.81430000
H       -2.14200000      -0.62770000       0.09850000
H       -1.16060000      -2.99630000       0.06580000
H        3.85450000      -2.24210000      -0.12200000
