17
Properties=species:S:1:pos:R:3 gdb_126268=T pbc="F F F"
C        0.11280000       1.57610000       0.37680000
C        0.00080000       0.11950000      -0.10730000
C       -1.39970000      -0.37750000      -0.16180000
C       -2.21480000      -0.78740000      -1.17940000
O       -1.91560000      -0.85260000      -2.48450000
C       -2.95220000      -1.33530000      -3.33990000
N       -3.42220000      -1.13130000      -0.63860000
N       -3.39940000      -0.96020000       0.61870000
O       -2.12120000      -0.47740000       0.96600000
H        1.16110000       1.88580000       0.40830000
H       -0.42510000       2.25370000      -0.29260000
H       -0.30770000       1.68610000       1.37990000
H        0.42210000       0.01770000      -1.11200000
H        0.58790000      -0.53180000       0.55200000
H       -3.83590000      -0.69130000      -3.28910000
H       -2.53460000      -1.31990000      -4.34700000
H       -3.24290000      -2.35540000      -3.06880000
