18
Properties=species:S:1:pos:R:3 gdb_26695=T pbc="F F F"
C        0.00740000       1.53210000       0.01890000
C        0.03160000       0.03560000       0.01260000
C        0.01720000      -0.76880000      -1.09370000
O       -0.07840000      -0.48790000      -2.42840000
N        0.04880000      -2.09120000      -0.68460000
C        0.07250000      -2.12000000       0.68310000
O        0.09160000      -3.34360000       1.28070000
C        0.07710000      -0.83570000       1.16720000
C        0.11640000      -0.41060000       2.60310000
H        0.93180000       1.96450000       0.42380000
H       -0.12390000       1.91750000      -0.99650000
H       -0.81690000       1.92360000       0.62760000
H        0.76480000      -0.14380000      -2.74250000
H       -0.02460000      -2.89220000      -1.28690000
H        0.02650000      -3.21230000       2.23150000
H        0.99850000       0.20100000       2.83120000
H       -0.76330000       0.18130000       2.88590000
H        0.14890000      -1.27050000       3.28360000
