15
Properties=species:S:1:pos:R:3 gdb_19672=T pbc="F F F"
C       -0.02010000      -1.24080000      -0.00520000
C        0.00140000      -0.03910000       0.03800000
C        0.01340000       1.41160000       0.09350000
C       -0.26120000       2.14970000       1.42710000
C        0.81320000       1.55850000       2.37700000
C        1.83060000       2.20760000       1.44060000
C        0.83070000       3.16950000       0.92360000
N        1.35320000       2.11170000       0.01200000
H       -0.03440000      -2.30190000      -0.04890000
H       -0.59650000       1.82460000      -0.71600000
H       -1.27340000       2.35370000       1.76950000
H        0.80810000       2.06470000       3.34550000
H        0.82710000       0.47380000       2.51420000
H        2.89850000       2.32480000       1.56600000
H        0.84400000       4.22770000       0.70100000
