15
Properties=species:S:1:pos:R:3 gdb_4787=T pbc="F F F"
C       -0.11520000       1.42930000       0.09090000
N       -0.03630000       0.01120000      -0.24120000
C       -1.15810000      -0.77790000      -0.08620000
C       -1.32180000      -2.12020000       0.12220000
C       -2.74310000      -2.33350000       0.09130000
O       -3.40380000      -3.51210000       0.25290000
C       -3.33410000      -1.13100000      -0.12080000
O       -2.34650000      -0.16160000      -0.22950000
H        0.84450000       1.89430000      -0.14520000
H       -0.88470000       1.90330000      -0.52110000
H       -0.35320000       1.62160000       1.14770000
H        0.79530000      -0.44330000       0.10540000
H       -0.54720000      -2.85570000       0.27450000
H       -2.75550000      -4.21270000       0.36360000
H       -4.34980000      -0.79230000      -0.20350000
