16
Properties=species:S:1:pos:R:3 gdb_126454=T pbc="F F F"
C       -0.04510000       1.55370000      -0.04050000
C        0.03750000       0.03110000       0.06140000
C        0.76170000      -0.48880000       1.27530000
N        1.24700000       0.34880000       2.12100000
O        1.90520000      -0.18330000       3.22210000
C        2.04870000      -1.56120000       3.42650000
N        2.65940000      -1.98490000       4.44840000
N        1.50960000      -2.43940000       2.48920000
C        0.90720000      -1.92630000       1.48340000
H        0.95140000       2.00070000      -0.07370000
H       -0.58460000       1.83890000      -0.94730000
H       -0.56520000       1.97830000       0.82160000
H       -0.97040000      -0.40750000       0.05980000
H        0.53240000      -0.38530000      -0.82740000
H        2.98320000      -1.20260000       5.01830000
H        0.48170000      -2.60460000       0.74240000
