18
Properties=species:S:1:pos:R:3 gdb_39046=T pbc="F F F"
C       -0.04020000       1.54690000       0.04710000
C        1.51090000       1.50780000      -0.01770000
O        2.13090000       1.66840000       1.26650000
C        1.55070000       1.05920000       2.33760000
N        0.80420000       0.04080000       2.39260000
C        0.54540000      -0.74600000       1.19870000
C        1.84370000      -1.06380000       0.38580000
C        1.44300000       0.04620000      -0.59330000
C       -0.02740000       0.01690000      -0.07020000
H       -0.48380000       2.00670000       0.93360000
H       -0.46120000       2.01660000      -0.84660000
H        2.00810000       2.24520000      -0.64800000
H        1.83460000       1.58170000       3.25010000
H       -0.04750000      -1.61360000       1.49220000
H        2.78980000      -0.97190000       0.92450000
H        1.79640000      -2.04770000      -0.09030000
H        1.70850000      -0.02250000      -1.64960000
H       -0.83510000      -0.50550000      -0.58340000
