23
Properties=species:S:1:pos:R:3 gdb_66143=T pbc="F F F"
C        0.09470000       1.64540000       0.16490000
C       -0.06730000       0.14660000       0.02590000
C        1.11780000      -0.71190000      -0.35140000
C        0.53620000      -0.76560000       1.04940000
O       -1.32450000      -0.27910000      -0.42730000
C       -1.60250000       0.00660000      -1.79160000
C       -2.85060000      -0.73150000      -2.19060000
C       -4.20280000      -0.14360000      -1.88290000
C       -3.70960000      -0.19220000      -3.30700000
H        1.06160000       1.88850000       0.61450000
H        0.04560000       2.15260000      -0.80460000
H       -0.69430000       2.05500000       0.80450000
H        0.92850000      -1.56360000      -0.99500000
H        2.08310000      -0.23870000      -0.49760000
H        1.10000000      -0.32650000       1.86530000
H       -0.04060000      -1.64480000       1.31170000
H       -1.74870000       1.08790000      -1.94450000
H       -0.75150000      -0.30010000      -2.41980000
H       -2.76580000      -1.81190000      -2.11940000
H       -5.00040000      -0.81640000      -1.58890000
H       -4.22950000       0.82080000      -1.38670000
H       -3.41160000       0.74100000      -3.77410000
H       -4.16430000      -0.90090000      -3.99000000
