20
Properties=species:S:1:pos:R:3 gdb_70390=T pbc="F F F"
C       -0.11850000       1.54360000       0.09280000
C        0.09650000       0.06360000       0.04370000
N       -0.78230000      -0.88650000       0.76650000
C        0.68460000      -0.90000000       1.01090000
C        1.28250000      -1.76070000      -0.09910000
C        0.67270000      -0.75040000      -1.16480000
C       -0.35550000      -1.32340000      -2.14580000
C        1.71880000      -0.01430000      -1.85880000
C        2.57870000       0.59580000      -2.43880000
H        0.74730000       2.07390000      -0.31390000
H       -0.99810000       1.83580000      -0.49300000
H       -0.27510000       1.88070000       1.12350000
H       -1.21220000      -0.36250000       1.52880000
H        1.07960000      -0.73140000       2.00570000
H        2.37260000      -1.76530000      -0.11950000
H        0.89850000      -2.78230000      -0.15520000
H       -1.15080000      -1.82300000      -1.58930000
H       -0.79400000      -0.52900000      -2.75790000
H        0.11770000      -2.04340000      -2.82020000
H        3.33890000       1.12850000      -2.95450000
