20
Properties=species:S:1:pos:R:3 gdb_113994=T pbc="F F F"
O       -0.08630000       1.26220000      -0.84780000
C        0.00220000       0.26160000       0.15300000
C       -1.31240000      -0.47090000       0.29370000
N       -1.66600000      -1.33440000      -0.85330000
C       -1.46570000      -1.93990000       0.47740000
C       -0.33330000      -2.93100000       0.62080000
C       -0.72810000      -4.31120000       0.05090000
C        0.33050000      -5.30370000       0.18170000
C        1.22120000      -6.10160000       0.30330000
H       -0.36700000       0.80610000      -1.65010000
H        0.81570000      -0.44390000      -0.06340000
H        0.24900000       0.77850000       1.08640000
H       -2.11190000       0.14680000       0.70050000
H       -2.65580000      -1.25570000      -1.06800000
H       -2.37070000      -2.23840000       1.00870000
H        0.55540000      -2.57680000       0.09410000
H       -0.06510000      -3.03590000       1.67830000
H       -1.63280000      -4.67280000       0.55800000
H       -0.99560000      -4.18860000      -1.00590000
H        2.00020000      -6.81590000       0.40340000
