18
Properties=species:S:1:pos:R:3 gdb_24636=T pbc="F F F"
C       -0.14140000       1.42740000      -0.21120000
C        1.26760000       1.01290000       0.07610000
C        0.16920000      -0.03460000       0.05440000
C       -0.28210000      -0.70510000       1.29930000
C       -0.34530000      -0.06180000       2.54090000
C       -0.78060000      -0.76750000       3.65590000
N       -1.15480000      -2.05060000       3.63510000
C       -1.09410000      -2.66300000       2.45010000
C       -0.67320000      -2.04680000       1.27640000
H       -0.68890000       1.96480000       0.55540000
H       -0.40510000       1.70570000      -1.22540000
H        1.98310000       1.00320000      -0.73850000
H        1.69390000       1.26400000       1.04120000
H        0.15610000      -0.68250000      -0.81590000
H       -0.06040000       0.97950000       2.65010000
H       -0.83100000      -0.27070000       4.62250000
H       -1.39870000      -3.70730000       2.43370000
H       -0.64990000      -2.60910000       0.34820000
