21
Properties=species:S:1:pos:R:3 gdb_121660=T pbc="F F F"
O        0.01350000       1.41620000      -0.00010000
C        0.03790000      -0.00220000      -0.02000000
C       -1.40170000      -0.49530000       0.02810000
C       -1.49660000      -2.01850000       0.01130000
C       -2.92310000      -2.54800000       0.05690000
O       -3.88600000      -1.81000000       0.10210000
C       -3.07350000      -4.03320000       0.04320000
C       -4.23940000      -4.62430000       0.82380000
C       -4.29460000      -4.60490000      -0.66390000
H        0.92050000       1.73390000      -0.02890000
H        0.53250000      -0.37970000      -0.93110000
H        0.59980000      -0.40340000       0.84060000
H       -1.88640000      -0.10190000       0.92690000
H       -1.95290000      -0.07860000      -0.82060000
H       -1.01560000      -2.43900000      -0.88450000
H       -0.95120000      -2.46220000       0.85750000
H       -2.15700000      -4.61140000       0.00160000
H       -4.06670000      -5.56560000       1.33270000
H       -4.85490000      -3.90730000       1.35480000
H       -4.94710000      -3.87490000      -1.12900000
H       -4.16120000      -5.53250000      -1.20850000
