18
Properties=species:S:1:pos:R:3 gdb_65578=T pbc="F F F"
C        0.06360000       1.46950000       0.06360000
C        0.03790000      -0.05470000      -0.01300000
C        0.77430000      -0.66050000      -1.24500000
C        1.36760000      -1.95330000      -0.69140000
C        2.61290000      -1.83740000       0.16850000
C        1.25190000      -1.84700000       0.80180000
O        0.72620000      -0.57800000       1.12860000
C       -1.36760000      -0.53860000       0.01280000
N       -2.45790000      -0.92170000       0.03090000
H        1.10280000       1.80740000       0.06970000
H       -0.45230000       1.90490000      -0.79620000
H       -0.42580000       1.81490000       0.97680000
H        0.08920000      -0.84130000      -2.07550000
H        1.54310000       0.03950000      -1.58750000
H        1.16880000      -2.88450000      -1.20640000
H        3.23140000      -2.72210000       0.27640000
H        3.15190000      -0.89560000       0.17010000
H        0.91590000      -2.65280000       1.44450000
