23
Properties=species:S:1:pos:R:3 gdb_38925=T pbc="F F F"
C        0.21680000       1.45990000       0.68190000
C        1.53550000       1.56920000      -0.14210000
C        2.81650000       1.18260000       0.62960000
C        2.49030000      -0.32930000       0.40350000
C        2.04670000      -1.14890000       1.63180000
C        0.82070000      -2.01050000       1.30320000
C       -0.40840000      -1.13840000       0.99040000
C       -0.07160000       0.04930000       0.06480000
C        1.33790000       0.07870000      -0.57860000
H        0.37080000       1.46020000       1.76610000
H       -0.53830000       2.21620000       0.45280000
H        1.58990000       2.39890000      -0.84850000
H        3.72810000       1.49510000       0.11140000
H        2.88280000       1.51880000       1.67040000
H        3.29280000      -0.86190000      -0.11380000
H        2.87360000      -1.77430000       1.98550000
H        1.79720000      -0.47970000       2.46570000
H        1.05280000      -2.64380000       0.43590000
H        0.59340000      -2.69160000       2.13060000
H       -1.19020000      -1.76270000       0.54380000
H       -0.82740000      -0.75360000       1.92960000
H       -0.83920000       0.14940000      -0.70790000
H        1.44560000      -0.26980000      -1.60710000
