20
Properties=species:S:1:pos:R:3 gdb_67825=T pbc="F F F"
C       -0.04570000       1.51940000       0.03400000
C        0.02390000       0.01150000      -0.01780000
C       -0.12340000      -0.67720000      -1.33510000
C       -0.81620000      -1.80530000      -1.19170000
C       -1.10250000      -2.05420000       0.27730000
C       -0.05850000      -3.03770000       0.85320000
C        1.22820000      -2.17540000       0.88340000
C        0.68830000      -0.76210000       1.09080000
N       -0.79060000      -0.75330000       0.96120000
H        0.80720000       1.96800000      -0.48780000
H       -0.96410000       1.88220000      -0.44010000
H       -0.03750000       1.87140000       1.06880000
H        0.27770000      -0.27590000      -2.25820000
H       -1.04480000      -2.52490000      -1.96970000
H       -2.13210000      -2.35950000       0.48580000
H       -0.35080000      -3.32600000       1.86850000
H        0.04480000      -3.95050000       0.25870000
H        1.90200000      -2.46120000       1.69450000
H        1.78310000      -2.27140000      -0.05440000
H        1.07480000      -0.19300000       1.93370000
