18
Properties=species:S:1:pos:R:3 gdb_74867=T pbc="F F F"
C        0.03440000       1.52270000      -0.02270000
C       -0.01240000       0.03060000      -0.04990000
C       -0.08550000      -0.78280000      -1.11720000
C       -0.02010000      -2.21240000      -0.71340000
C        1.25610000      -2.64570000      -0.00730000
C        0.08630000      -2.14830000       0.80030000
N        0.04470000      -0.74240000       1.14240000
C       -0.01780000      -0.30330000       2.43610000
O       -0.07290000       0.85100000       2.80270000
H        0.95570000       1.88610000       0.44170000
H       -0.01850000       1.90120000      -1.04650000
H       -0.78850000       1.93990000       0.56210000
H       -0.15710000      -0.43960000      -2.13940000
H       -0.61960000      -2.95920000      -1.22210000
H        1.45270000      -3.71060000       0.05460000
H        2.13360000      -2.01620000      -0.10390000
H       -0.44020000      -2.81300000       1.47390000
H       -0.00800000      -1.15740000       3.14170000
