17
Properties=species:S:1:pos:R:3 gdb_29514=T pbc="F F F"
C        0.01480000       1.55180000      -0.05570000
C        0.00530000       0.05760000       0.02250000
C        0.03200000      -0.80800000      -1.03280000
O        0.01370000      -2.13780000      -0.60630000
C       -0.02500000      -2.04120000       0.71980000
C       -0.03790000      -0.78100000       1.19340000
C       -0.02250000      -0.86680000       2.69460000
C       -0.16550000      -2.42380000       2.88180000
O       -0.02420000      -3.07560000       1.57290000
H        0.88380000       1.97470000       0.46180000
H        0.04580000       1.89300000      -1.09410000
H       -0.87750000       1.98310000       0.41270000
H        0.05230000      -0.67420000      -2.10050000
H        0.90780000      -0.49550000       3.14240000
H       -0.84730000      -0.34580000       3.19280000
H        0.59810000      -2.85100000       3.53370000
H       -1.15370000      -2.69240000       3.26510000
