17
Properties=species:S:1:pos:R:3 gdb_25662=T pbc="F F F"
C       -0.09610000       1.43110000       0.03780000
C       -0.01450000      -0.01980000       0.01430000
C        0.06940000      -1.22330000      -0.00590000
C        0.14710000      -2.63390000      -0.02870000
N        1.23830000      -3.37970000      -0.09260000
C        0.79580000      -4.67490000      -0.08820000
C       -0.57730000      -4.73970000      -0.02110000
C       -1.52850000      -5.88660000       0.01110000
N       -0.97810000      -3.42500000       0.01630000
H        0.90470000       1.87530000       0.06660000
H       -0.60600000       1.81980000      -0.85120000
H       -0.64270000       1.78810000       0.91800000
H        1.48640000      -5.50450000      -0.13350000
H       -2.12990000      -5.89980000       0.92840000
H       -2.22420000      -5.87090000      -0.83690000
H       -0.97370000      -6.82650000      -0.03390000
H       -1.92510000      -3.08740000       0.06760000
