12
Properties=species:S:1:pos:R:3 gdb_48377=T pbc="F F F"
O       -0.33190000       0.42240000       0.77610000
C        0.25070000       0.84030000      -0.18270000
C        1.36260000       1.86530000      -0.09500000
N        2.33130000       1.79820000      -1.20530000
C        1.45790000       2.96040000      -1.14970000
C        0.45970000       3.09200000      -2.18630000
N       -0.34510000       3.22280000      -3.00470000
C        1.82320000       2.21570000       1.22780000
N        2.23210000       2.49990000       2.27030000
H        0.04450000       0.51620000      -1.22140000
H        3.26980000       2.02780000      -0.88610000
H        1.85460000       3.90600000      -0.78960000
