16
Properties=species:S:1:pos:R:3 gdb_65547=T pbc="F F F"
O       -0.08260000       1.38190000       0.00110000
C       -0.00360000      -0.02430000       0.02760000
C        0.45510000      -0.63690000       1.40360000
C       -0.87290000      -1.34120000       1.75140000
C       -1.25840000      -2.07390000       0.44600000
C       -1.45510000      -0.59720000       0.04820000
O       -1.85310000      -0.31080000       1.41170000
C        0.78550000      -0.51620000      -1.11380000
N        1.41600000      -0.88750000      -2.00910000
H        0.80940000       1.74370000       0.04510000
H        1.30810000      -1.31350000       1.32260000
H        0.68240000       0.16860000       2.10430000
H       -0.99530000      -1.76630000       2.74650000
H       -0.51600000      -2.68240000      -0.07500000
H       -2.21440000      -2.58910000       0.53320000
H       -2.13380000      -0.23420000      -0.72120000
