21
Properties=species:S:1:pos:R:3 gdb_52331=T pbc="F F F"
O        0.20020000       0.11310000      -0.60280000
C        0.24790000       1.30590000      -0.56540000
O        0.95440000       1.98010000       0.35800000
C        0.95680000       3.41540000       0.31070000
C        2.36570000       3.94190000       0.08550000
C        2.98940000       3.57880000      -1.27470000
C        4.12840000       4.59800000      -1.41680000
C        3.51590000       5.91540000      -0.89420000
C        2.43450000       5.49290000       0.14260000
H       -0.27920000       1.97490000      -1.27470000
H        0.28410000       3.76280000      -0.48640000
H        0.55440000       3.76310000       1.26800000
H        3.00320000       3.52620000       0.87540000
H        3.32350000       2.53960000      -1.32700000
H        2.25090000       3.72910000      -2.07540000
H        4.97060000       4.29400000      -0.78360000
H        4.50820000       4.68130000      -2.43880000
H        4.26840000       6.57960000      -0.46120000
H        3.05030000       6.46500000      -1.71870000
H        1.46330000       5.93040000      -0.11690000
H        2.66910000       5.84040000       1.15230000
