17
Properties=species:S:1:pos:R:3 gdb_112492=T pbc="F F F"
C        0.04090000       1.43410000      -0.30940000
C        0.02710000      -0.07420000      -0.04840000
C       -1.38500000      -0.61670000       0.14750000
N       -2.25260000      -0.61600000      -1.06810000
C       -2.67000000      -2.02750000      -0.89510000
C       -2.55800000      -2.87510000      -2.07510000
N       -2.45600000      -3.56130000      -2.99940000
C       -1.56030000      -2.13940000       0.20850000
O       -1.06260000      -3.03830000       0.80280000
H        1.06230000       1.79350000      -0.46280000
H       -0.53760000       1.67720000      -1.20610000
H       -0.38650000       1.98950000       0.53310000
H        0.48960000      -0.60380000      -0.88830000
H        0.61010000      -0.31730000       0.84770000
H       -1.85410000      -0.14730000       1.02720000
H       -3.02110000       0.04300000      -1.05290000
H       -3.65970000      -2.17480000      -0.43840000
