21
Properties=species:S:1:pos:R:3 gdb_91577=T pbc="F F F"
C       -0.15160000       1.53660000      -0.14090000
C        0.10370000       0.03430000      -0.15410000
C        1.34130000      -0.53600000      -0.93180000
C        1.80050000      -1.24490000       0.34690000
C        2.03250000      -0.23190000       1.43210000
C        0.61800000      -0.65910000       1.12620000
C       -0.28190000      -1.29940000       2.15580000
C       -0.93400000      -0.25680000       3.04350000
O       -2.12150000      -0.10120000       3.16790000
H        0.72650000       2.09590000       0.19830000
H       -0.40540000       1.89750000      -1.14370000
H       -0.98650000       1.78820000       0.52260000
H       -0.80090000      -0.48070000      -0.49530000
H        1.05650000      -1.21380000      -1.73910000
H        2.04220000       0.20560000      -1.33090000
H        2.21330000      -2.24540000       0.40280000
H        2.43980000      -0.62660000       2.35820000
H        2.39000000       0.76520000       1.18650000
H       -1.07080000      -1.89850000       1.68930000
H        0.31560000      -1.95850000       2.80180000
H       -0.20940000       0.39580000       3.58360000
