17
Properties=species:S:1:pos:R:3 gdb_26329=T pbc="F F F"
C        0.02030000       1.52350000      -0.08830000
C       -0.00320000      -0.00070000       0.09050000
O        0.57560000      -0.36930000       1.33910000
C       -1.39260000      -0.55750000      -0.01920000
C       -1.98750000      -1.27810000      -1.01040000
N       -3.28610000      -1.52210000      -0.56460000
C       -3.38390000      -0.94870000       0.65800000
O       -4.53500000      -1.03230000       1.34450000
N       -2.28340000      -0.35480000       1.03240000
H        1.03800000       1.89700000       0.05500000
H       -0.32530000       1.80780000      -1.08780000
H       -0.63510000       1.99900000       0.64820000
H        0.62430000      -0.46180000      -0.68150000
H       -0.12880000      -0.27520000       1.99260000
H       -1.63690000      -1.63840000      -1.96240000
H       -4.01100000      -2.03550000      -1.03560000
H       -4.39260000      -0.56050000       2.17450000
