19
Properties=species:S:1:pos:R:3 gdb_66070=T pbc="F F F"
C       -0.09780000       1.53530000       0.07270000
C       -0.03000000       0.00030000       0.01050000
C        1.14210000      -0.50130000      -0.90370000
C        2.01730000      -0.70470000       0.35550000
C        0.73650000      -0.67290000       1.23600000
C        0.79820000       0.06660000       2.54380000
O        0.33550000      -0.33450000       3.58160000
C       -1.34060000      -0.56080000      -0.26230000
C       -2.42330000      -1.03240000      -0.49060000
H        0.88950000       1.97050000       0.25490000
H       -0.46780000       1.92340000      -0.88050000
H       -0.77670000       1.87280000       0.86100000
H        0.89050000      -1.44550000      -1.38980000
H        1.49140000       0.20590000      -1.65980000
H        2.61820000      -1.61360000       0.41220000
H        2.66890000       0.15170000       0.55510000
H        0.33310000      -1.66990000       1.41900000
H        1.33160000       1.04470000       2.50020000
H       -3.37970000      -1.44960000      -0.68810000
