21
Properties=species:S:1:pos:R:3 gdb_93718=T pbc="F F F"
C       -0.05940000       1.58330000       0.00420000
C        0.04480000       0.05970000       0.01750000
C        0.82280000      -0.53530000      -1.18690000
N        1.69770000      -1.57880000      -0.61820000
C        1.27170000      -1.89560000       0.74850000
C        2.42840000      -2.48070000       1.56850000
C        0.78420000      -0.51630000       1.23830000
C        0.13540000      -2.85730000       0.75950000
N       -0.73710000      -3.61600000       0.71680000
H        0.93470000       2.04470000       0.01590000
H       -0.58140000       1.93680000      -0.89110000
H       -0.61160000       1.95040000       0.87550000
H       -0.96750000      -0.35960000       0.01120000
H        0.13000000      -0.92700000      -1.94230000
H        1.44050000       0.22860000      -1.67620000
H        1.77200000      -2.40140000      -1.20360000
H        3.26480000      -1.77810000       1.55000000
H        2.12370000      -2.65960000       2.60350000
H        2.76410000      -3.43200000       1.14550000
H        1.66860000       0.08540000       1.47510000
H        0.16070000      -0.58210000       2.13250000
