19
Properties=species:S:1:pos:R:3 gdb_84403=T pbc="F F F"
O       -0.26330000       1.46270000       0.47430000
C       -0.01390000       0.11390000       0.06910000
C        0.92570000      -0.58210000       1.02170000
C        0.80100000      -1.85130000       1.39880000
C       -0.29740000      -2.77050000       0.92610000
O       -0.76240000      -3.61460000       1.98290000
C       -1.49630000      -2.02210000       0.38600000
C       -2.12280000      -0.92480000       1.20470000
C       -1.35440000      -0.57870000      -0.04290000
H        0.57040000       1.94290000       0.43290000
H        0.45140000       0.11880000      -0.93270000
H        1.75360000       0.01930000       1.39360000
H        1.52640000      -2.29230000       2.08050000
H        0.10550000      -3.40000000       0.11290000
H       -0.03160000      -4.18090000       2.25240000
H       -2.16950000      -2.64120000      -0.19760000
H       -3.20160000      -0.82520000       1.18310000
H       -1.66550000      -0.68660000       2.15760000
H       -1.93600000      -0.26530000      -0.90350000
