19
Properties=species:S:1:pos:R:3 gdb_50148=T pbc="F F F"
O       -0.67580000       0.48740000       0.11870000
C       -0.14020000       1.54760000      -0.07160000
C        1.35330000       1.80980000       0.05070000
C        1.89520000       2.65400000      -1.14360000
C        2.14480000       4.06420000      -0.58100000
C        3.14190000       5.01140000      -1.20830000
C        1.67070000       5.31750000      -1.29250000
C        2.00890000       3.92540000       0.88980000
C        1.60730000       2.70610000       1.25020000
H       -0.72970000       2.45530000      -0.34440000
H        1.84320000       0.83550000       0.14190000
H        2.82820000       2.21050000      -1.50320000
H        1.19880000       2.66340000      -1.98880000
H        3.75860000       5.61670000      -0.55190000
H        3.64660000       4.67720000      -2.10940000
H        1.17440000       5.19090000      -2.24940000
H        1.27750000       6.13020000      -0.69070000
H        2.22360000       4.74240000       1.57090000
H        1.42740000       2.36960000       2.26410000
