18
Properties=species:S:1:pos:R:3 gdb_18299=T pbc="F F F"
O        0.33820000       1.08720000       0.61490000
C        0.09390000      -0.20450000       0.16150000
C       -1.32730000      -0.69320000      -0.05460000
C       -2.50330000       0.25850000       0.08310000
C       -3.10760000       0.50070000      -1.31130000
C       -2.04910000       1.05490000      -2.28990000
O       -0.69570000       0.85360000      -1.85340000
C       -0.43030000      -0.37500000      -1.23920000
H        0.18330000       1.66270000      -0.14810000
H        0.81950000      -0.92260000       0.53200000
H       -1.51790000      -1.74270000       0.14860000
H       -3.25930000      -0.15990000       0.75280000
H       -2.16790000       1.19990000       0.53080000
H       -3.50080000      -0.45060000      -1.68660000
H       -3.95300000       1.19460000      -1.26470000
H       -2.17590000       0.61710000      -3.28950000
H       -2.14070000       2.14050000      -2.39070000
H       -0.05390000      -1.15110000      -1.90330000
