18
Properties=species:S:1:pos:R:3 gdb_83495=T pbc="F F F"
O       -0.04050000       1.39460000      -0.04030000
C       -0.01440000      -0.01140000       0.02060000
C        0.31940000      -0.61270000       1.40650000
C       -0.77180000      -0.02050000       2.31230000
C       -2.00900000      -0.00240000       1.36040000
C       -1.43590000      -0.60560000       0.04270000
C       -1.08750000      -2.04220000       0.34830000
N       -1.67260000      -3.08540000      -0.04850000
O        0.01020000      -2.01090000       1.18670000
H        0.86580000       1.71430000      -0.08720000
H        0.61050000      -0.44800000      -0.76920000
H        1.34700000      -0.54490000       1.76440000
H       -0.91550000      -0.64580000       3.19570000
H       -0.49880000       0.98530000       2.63870000
H       -2.84650000      -0.59380000       1.73460000
H       -2.35730000       1.01580000       1.18150000
H       -2.05360000      -0.48230000      -0.84300000
H       -1.22540000      -3.91700000       0.34310000
