14
Properties=species:S:1:pos:R:3 gdb_99464=T pbc="F F F"
C        0.14560000       1.39320000       0.13570000
O       -0.16710000       0.02870000      -0.09350000
C        0.52040000      -0.53370000      -1.16870000
C        1.96640000      -0.67870000      -0.95580000
C        3.14430000      -0.81510000      -0.76310000
C       -0.08640000      -1.92650000      -1.43010000
O       -0.94330000      -2.43260000      -0.76560000
C        0.47090000      -2.60630000      -2.61770000
N        0.87210000      -3.13250000      -3.56560000
H        1.20400000       1.52760000       0.39210000
H       -0.08900000       2.00950000      -0.74470000
H       -0.47460000       1.71420000       0.97380000
H        0.36120000       0.05020000      -2.09640000
H        4.18800000      -0.93410000      -0.60070000
