15
Properties=species:S:1:pos:R:3 gdb_39549=T pbc="F F F"
O       -0.02110000       1.48700000       0.04850000
C        1.14210000       2.17760000      -0.07580000
N        2.32220000       1.73700000      -0.20670000
C        2.46240000       0.29010000      -0.25500000
C        2.24250000      -0.51500000       1.02190000
C        0.76770000      -0.62480000       1.22000000
C        0.11050000       0.06120000       0.04070000
C        1.26400000      -0.53030000      -0.77880000
N        1.48540000      -1.60630000       0.31420000
H        0.93940000       3.24650000      -0.05780000
H        3.39980000       0.01830000      -0.74300000
H        2.94800000      -0.73600000       1.81400000
H        0.31850000      -0.93880000       2.15410000
H       -0.87190000      -0.34220000      -0.20260000
H        1.15470000      -0.81420000      -1.82150000
