17
Properties=species:S:1:pos:R:3 gdb_53415=T pbc="F F F"
C       -0.05790000       1.47730000       0.09120000
C       -0.05180000       0.02280000       0.05540000
C       -0.04360000      -1.18010000       0.04220000
C       -0.05570000      -2.63540000      -0.01550000
O        0.73300000      -3.18040000       1.05190000
C        0.19880000      -4.43630000       1.45490000
C       -1.26160000      -4.40610000       1.06210000
O       -1.92450000      -3.20840000       1.48380000
C       -1.43060000      -3.27730000       0.14890000
H        0.60250000       1.85060000       0.88150000
H        0.28650000       1.90240000      -0.85790000
H       -1.06290000       1.86620000       0.28770000
H        0.34650000      -2.96630000      -0.98970000
H        0.69800000      -5.27630000       0.94420000
H        0.36160000      -4.53530000       2.53300000
H       -1.86040000      -5.31200000       1.02930000
H       -2.15990000      -3.22860000      -0.65410000
