20
Properties=species:S:1:pos:R:3 gdb_126151=T pbc="F F F"
C       -0.08500000       1.53500000      -0.08090000
C       -0.09430000       0.00940000       0.05360000
C        0.72190000      -0.53180000       1.25090000
C        0.15610000      -0.07700000       2.60820000
C        0.82180000      -2.02970000       1.18430000
N        1.97570000      -2.65030000       0.91830000
N        1.64810000      -3.93720000       0.93360000
N        0.38050000      -4.22510000       1.18760000
C       -0.16840000      -3.02110000       1.35060000
H        0.93920000       1.91880000      -0.14880000
H       -0.61600000       1.84630000      -0.98580000
H       -0.56940000       2.02760000       0.76760000
H       -1.12910000      -0.34930000       0.13530000
H        0.30980000      -0.43480000      -0.86340000
H        1.74630000      -0.15160000       1.15820000
H        0.16840000       1.01250000       2.69800000
H       -0.87970000      -0.41130000       2.73650000
H        0.74490000      -0.48830000       3.43310000
H        2.33100000      -4.65820000       0.76720000
H       -1.21860000      -2.92270000       1.57490000
