21
Properties=species:S:1:pos:R:3 gdb_106307=T pbc="F F F"
C       -0.15690000       1.33470000       0.05190000
O        0.13430000      -0.04570000      -0.02640000
C        0.73550000      -0.58020000       1.10520000
C        0.03120000      -0.62680000       2.50560000
C        1.02890000      -1.78970000       2.71320000
O        0.76610000      -2.70070000       3.73290000
C        0.83750000      -2.12010000       1.19700000
C        2.39050000      -1.06200000       2.71420000
C        2.17140000      -0.13210000       1.48000000
H        0.75110000       1.94940000       0.12790000
H       -0.68190000       1.60120000      -0.86820000
H       -0.80550000       1.56470000       0.90950000
H        0.10780000       0.23670000       3.17210000
H       -0.99970000      -0.97840000       2.43380000
H        1.49280000      -3.33240000       3.76840000
H       -0.11950000      -2.60620000       1.00040000
H        1.65020000      -2.61490000       0.65670000
H        2.55280000      -0.51270000       3.64600000
H        3.22670000      -1.75660000       2.57670000
H        2.87530000      -0.32220000       0.66500000
H        2.23010000       0.92770000       1.74230000
