22
Properties=species:S:1:pos:R:3 gdb_116919=T pbc="F F F"
C       -0.08410000       1.59750000       0.10160000
C       -0.05030000       0.06920000       0.04390000
C        0.69120000      -0.45360000      -1.20420000
C        0.73470000      -1.90970000      -1.27680000
C        0.74390000      -3.11540000      -1.31440000
C        0.79500000      -4.55260000      -1.32450000
C       -0.02910000      -5.33330000      -2.30780000
N        1.41690000      -5.30970000      -2.43020000
C        1.97450000      -4.55890000      -3.54720000
H        0.92760000       2.01710000       0.13210000
H       -0.59000000       2.01750000      -0.77500000
H       -0.61600000       1.94710000       0.99150000
H        0.43790000      -0.33190000       0.93900000
H       -1.07000000      -0.33170000       0.04290000
H        0.20570000      -0.05460000      -2.10540000
H        1.71370000      -0.05150000      -1.21110000
H        0.98110000      -5.00450000      -0.35230000
H       -0.47180000      -6.28090000      -2.01130000
H       -0.61590000      -4.74870000      -3.01470000
H        1.41260000      -3.64670000      -3.79600000
H        3.00340000      -4.27230000      -3.30950000
H        1.99360000      -5.21140000      -4.42570000
