20
Properties=species:S:1:pos:R:3 gdb_79013=T pbc="F F F"
C       -0.12600000       1.59630000       0.05740000
C        0.04070000       0.08740000      -0.01820000
C        0.85770000      -0.59240000      -1.16780000
C        2.24730000       0.02700000      -0.98850000
C        3.16530000      -0.94940000      -0.34030000
C        2.50210000      -2.30990000      -0.32220000
C        1.07650000      -1.80320000      -0.19000000
C        1.09350000      -0.64770000       0.85470000
N        2.39480000       0.01500000       0.49820000
H        0.83840000       2.10870000       0.02380000
H       -0.74220000       1.96400000      -0.77090000
H       -0.62330000       1.88400000       0.99030000
H       -0.93000000      -0.41080000       0.08510000
H        0.46760000      -0.70990000      -2.17880000
H        2.58000000       0.90690000      -1.52680000
H        4.24230000      -0.82280000      -0.33800000
H        2.68030000      -2.87170000      -1.24540000
H        2.81530000      -2.92500000       0.52870000
H        0.26050000      -2.51910000      -0.12190000
H        0.98020000      -0.79920000       1.92820000
