19
Properties=species:S:1:pos:R:3 gdb_70227=T pbc="F F F"
C       -0.05220000       1.56560000       0.06890000
C        0.04510000       0.05930000       0.00680000
C       -0.81670000      -0.81190000       0.90890000
C        0.67950000      -0.81010000       1.08810000
C        1.48650000      -1.90850000       0.40410000
C        1.18320000      -1.70320000      -1.07890000
C        0.42480000      -0.60840000      -1.27020000
C        1.65860000      -2.59040000      -2.07220000
C        2.09130000      -3.37010000      -2.88390000
H        0.88230000       2.04060000      -0.24970000
H       -0.85370000       1.93840000      -0.57950000
H       -0.26990000       1.90240000       1.08720000
H       -1.40060000      -0.30450000       1.67100000
H       -1.29650000      -1.68470000       0.47730000
H        1.07970000      -0.35390000       1.98650000
H        2.56200000      -1.80730000       0.59510000
H        1.20330000      -2.91440000       0.73590000
H        0.09760000      -0.25070000      -2.24010000
H        2.46590000      -4.04750000      -3.61040000
