23
Properties=species:S:1:pos:R:3 gdb_83044=T pbc="F F F"
C       -0.51160000       1.30780000      -0.11770000
C       -0.02550000      -0.12270000      -0.00050000
C        1.38320000      -0.55240000      -0.35650000
C        2.45100000       0.47030000      -0.71520000
C        2.84250000       1.39430000       0.40490000
C        2.43380000       1.26950000       1.66580000
C        1.53160000       0.17730000       2.17990000
C        0.49230000       0.71400000       3.18330000
C        0.89900000      -0.66210000       1.07550000
H       -0.78150000       1.53440000      -1.15610000
H       -1.40880000       1.46620000       0.49100000
H        0.23810000       2.03540000       0.19720000
H       -0.78660000      -0.84000000      -0.30140000
H        1.46510000      -1.48060000      -0.91490000
H        3.35120000      -0.06270000      -1.05380000
H        2.13430000       1.06600000      -1.58420000
H        3.51870000       2.20450000       0.14040000
H        2.78510000       1.97950000       2.41270000
H        2.17870000      -0.50990000       2.74960000
H       -0.18420000       1.43220000       2.71240000
H       -0.11260000      -0.10350000       3.58900000
H        0.98520000       1.21580000       4.02340000
H        0.64650000      -1.66450000       1.41260000
