19
Properties=species:S:1:pos:R:3 gdb_68058=T pbc="F F F"
C       -0.02160000       1.44820000       0.03670000
C        0.04240000      -0.05220000       0.01030000
C        0.61360000      -0.96690000      -1.11490000
C        0.08090000      -1.92710000      -0.00770000
O        0.01260000      -3.30420000      -0.02000000
C        0.74620000      -0.98900000       1.04270000
C       -1.19450000      -1.03490000       0.05770000
C       -2.04340000      -1.05160000       1.22960000
C       -2.77110000      -1.04380000       2.18790000
H        0.98330000       1.88370000       0.02550000
H       -0.56610000       1.83560000      -0.83110000
H       -0.53240000       1.79780000       0.93990000
H        0.08070000      -0.96870000      -2.07000000
H        1.69790000      -0.93540000      -1.25300000
H        0.90880000      -3.65580000       0.01380000
H        1.84000000      -0.95810000       1.04680000
H        0.33200000      -1.00800000       2.05190000
H       -1.79110000      -1.04380000      -0.86050000
H       -3.41170000      -1.05060000       3.03460000
