19
Properties=species:S:1:pos:R:3 gdb_126246=T pbc="F F F"
C       -0.10380000       1.55420000       0.09780000
C       -0.03030000       0.02030000      -0.01220000
C        0.69730000      -0.46650000      -1.22950000
C        2.05490000      -0.57930000      -1.42750000
N        3.12290000      -0.28020000      -0.62640000
C        4.44290000      -0.82210000      -0.92230000
O        2.32380000      -1.03090000      -2.65880000
N        1.10390000      -1.23190000      -3.35040000
C        0.18460000      -0.89030000      -2.48110000
H        0.89850000       1.99390000       0.12170000
H       -0.62830000       1.98050000      -0.76270000
H       -0.63220000       1.86000000       1.00670000
H        0.44590000      -0.38200000       0.89370000
H       -1.04550000      -0.39250000      -0.01340000
H        2.88690000      -0.22400000       0.35260000
H        4.48760000      -1.91780000      -0.85270000
H        4.73610000      -0.53430000      -1.93370000
H        5.15970000      -0.39250000      -0.21940000
H       -0.85440000      -0.96160000      -2.77750000
