19
Properties=species:S:1:pos:R:3 gdb_64936=T pbc="F F F"
O        0.31920000       1.27360000       0.36450000
C        0.04000000      -0.07310000       0.06800000
C       -0.73140000      -0.86330000       1.11570000
C       -1.42860000      -0.35190000      -0.12000000
C        1.01790000      -0.75170000      -0.74060000
C        1.87610000      -1.29570000      -1.39310000
C        2.87800000      -1.93940000      -2.18970000
C        4.27990000      -2.15060000      -1.63490000
C        3.37450000      -3.32990000      -1.81910000
H        1.17450000       1.29830000       0.80810000
H       -0.53650000      -1.92570000       1.20330000
H       -0.92120000      -0.34200000       2.04720000
H       -2.07940000       0.50770000      -0.00940000
H       -1.71540000      -1.05880000      -0.88860000
H        2.82460000      -1.73150000      -3.25480000
H        5.10800000      -2.01800000      -2.32190000
H        4.46630000      -1.80290000      -0.62600000
H        2.94380000      -3.78620000      -0.93600000
H        3.57340000      -4.01630000      -2.63430000
