18
Properties=species:S:1:pos:R:3 gdb_99677=T pbc="F F F"
C       -0.10130000       1.41180000      -0.09320000
O       -0.09350000       0.03360000       0.24440000
C       -1.32910000      -0.61360000       0.06690000
C       -1.70600000      -0.69000000      -1.36590000
N       -1.99340000      -0.75030000      -2.48350000
C       -1.21400000      -2.01130000       0.66920000
C       -1.17040000      -2.02350000       2.21070000
O       -2.50920000      -2.55750000       2.28360000
C       -2.55270000      -2.75690000       0.85580000
H        0.89690000       1.79300000       0.12850000
H       -0.31850000       1.56550000      -1.15830000
H       -0.84070000       1.96470000       0.50430000
H       -2.13350000      -0.06240000       0.58400000
H       -0.41980000      -2.55860000       0.16050000
H       -0.42940000      -2.70960000       2.63860000
H       -1.08020000      -1.04790000       2.70140000
H       -3.43840000      -2.30050000       0.39770000
H       -2.52160000      -3.81930000       0.58520000
