17
Properties=species:S:1:pos:R:3 gdb_28294=T pbc="F F F"
C       -0.00260000       1.47520000       0.06290000
C        0.00770000      -0.01580000      -0.02770000
C       -0.08070000      -0.79790000      -1.15850000
N       -0.02560000      -2.09560000      -0.69770000
C       -0.04740000      -3.43080000      -1.13600000
C        0.05350000      -4.25080000      -0.08100000
C        0.15360000      -3.43820000       1.20050000
C        0.09100000      -2.03490000       0.66690000
N        0.11500000      -0.80450000       1.11140000
H        0.91620000       1.84880000       0.52830000
H       -0.09200000       1.92910000      -0.92800000
H       -0.83870000       1.82760000       0.67690000
H       -0.17230000      -0.55100000      -2.20270000
H       -0.13530000      -3.66000000      -2.18760000
H        0.06290000      -5.32930000      -0.12140000
H       -0.66640000      -3.65740000       1.89510000
H        1.08510000      -3.63610000       1.74460000
