19
Properties=species:S:1:pos:R:3 gdb_14775=T pbc="F F F"
C       -0.62860000       1.42050000      -0.37740000
C       -0.35410000      -0.07130000      -0.30170000
O       -1.57050000      -0.74010000      -0.02110000
C       -1.44380000      -2.14070000       0.04890000
C       -2.83300000      -2.74310000       0.16960000
O       -3.57470000      -2.61940000      -1.03810000
C       -4.23590000      -1.45860000      -1.23610000
N       -4.80000000      -1.24330000      -2.34450000
H        0.29450000       1.96620000      -0.59320000
H       -1.35260000       1.63630000      -1.16810000
H       -1.03410000       1.78590000       0.57040000
H        0.06560000      -0.43830000      -1.25240000
H        0.38650000      -0.29110000       0.48550000
H       -0.95230000      -2.53760000      -0.85360000
H       -0.83870000      -2.44140000       0.92200000
H       -2.75530000      -3.81540000       0.36790000
H       -3.36910000      -2.27260000       1.00430000
H       -4.22440000      -0.79490000      -0.36400000
H       -5.27560000      -0.34370000      -2.31680000
