14
Properties=species:S:1:pos:R:3 gdb_4719=T pbc="F F F"
C       -0.00150000       1.53020000      -0.00570000
C        0.00180000       0.03080000       0.01590000
C       -0.04840000      -0.80750000      -1.08350000
N       -0.02420000      -2.10100000      -0.65330000
C        0.04070000      -2.12200000       0.72420000
C        0.05770000      -0.80630000       1.15850000
C        0.07770000      -3.33200000       1.44810000
N        0.10760000      -4.33410000       2.03130000
H        0.91060000       1.94220000       0.44020000
H       -0.06940000       1.90900000      -1.02920000
H       -0.84830000       1.93940000       0.55610000
H       -0.09910000      -0.57350000      -2.13540000
H       -0.05030000      -2.91980000      -1.23630000
H        0.10550000      -0.49530000       2.19070000
