17
Properties=species:S:1:pos:R:3 gdb_17804=T pbc="F F F"
N       -0.07650000       1.37220000       0.05790000
C        0.12000000       0.02070000      -0.04770000
O        1.23510000      -0.46550000      -0.09500000
C       -1.16850000      -0.78230000      -0.06140000
C       -1.84760000      -1.17610000      -1.42420000
C       -0.70510000      -2.21240000      -1.63330000
C       -1.11850000      -2.33470000      -0.13440000
C       -2.59800000      -2.27640000      -0.62190000
H        0.72880000       1.97180000      -0.02160000
H       -0.98910000       1.78320000      -0.03490000
H       -1.87150000      -0.37540000       0.67540000
H       -2.26950000      -0.48920000      -2.16030000
H       -0.95430000      -3.06710000      -2.26810000
H        0.29460000      -1.83270000      -1.83330000
H       -0.69190000      -2.99880000       0.61660000
H       -3.34810000      -1.94050000       0.10020000
H       -2.95040000      -3.13610000      -1.19730000
