19
Properties=species:S:1:pos:R:3 gdb_88381=T pbc="F F F"
C       -1.46680000      -1.39900000       2.66900000
C       -0.63120000      -1.34540000       1.41630000
O       -0.65580000      -0.14990000       0.61930000
C        0.58590000      -0.54650000       1.19780000
C        1.30230000       0.41330000       2.15440000
C        2.24080000      -0.38140000       3.07230000
O        2.15990000       1.24770000       1.36150000
C        0.39930000       1.27000000       2.93570000
C       -0.27280000       2.03680000       3.57230000
H       -1.35970000      -0.49990000       3.27390000
H       -2.52280000      -1.51800000       2.40380000
H       -1.17720000      -2.26940000       3.26840000
H       -0.69600000      -2.25210000       0.80910000
H        1.31040000      -0.93310000       0.47690000
H        2.90460000      -1.00390000       2.46550000
H        2.84960000       0.30980000       3.65830000
H        1.66930000      -1.02000000       3.74930000
H        1.59210000       1.81430000       0.82580000
H       -0.88250000       2.70710000       4.12690000
