14
Properties=species:S:1:pos:R:3 gdb_10593=T pbc="F F F"
O       -0.13680000       1.37430000       0.08050000
C       -0.05550000       0.01110000       0.08530000
C       -0.41630000      -0.82040000       1.24300000
C       -1.38760000      -0.88090000       0.03710000
C       -2.62290000      -0.08440000       0.15940000
O       -2.70500000       0.93130000       0.82770000
C       -1.41600000      -2.04710000      -0.78810000
C       -1.44110000      -3.02480000      -1.48930000
H       -0.93020000       1.62550000       0.58620000
H        0.70840000      -0.34680000      -0.59580000
H        0.13640000      -1.73290000       1.43270000
H       -0.81890000      -0.31570000       2.11560000
H       -3.48420000      -0.45010000      -0.43090000
H       -1.46440000      -3.88750000      -2.10820000
