16
Properties=species:S:1:pos:R:3 gdb_43245=T pbc="F F F"
O       -0.11240000       0.16100000       0.59910000
C       -0.08460000       1.22000000       0.03660000
C       -1.25100000       2.11060000      -0.30970000
C       -0.74850000       3.23520000      -0.83550000
C       -0.60170000       4.66320000      -0.33990000
C        0.91110000       4.24040000      -0.10290000
C        1.26040000       3.09050000       0.90080000
N        1.14370000       1.99810000      -0.18310000
C        0.73150000       3.08320000      -1.10710000
H       -2.21510000       1.95250000       0.15560000
H       -0.62730000       5.43990000      -1.11100000
H       -1.23460000       4.95670000       0.50020000
H        1.65700000       5.02850000      -0.20510000
H        2.28980000       3.14720000       1.25750000
H        0.59430000       2.94430000       1.75560000
H        1.11310000       3.06560000      -2.12860000
