16
Properties=species:S:1:pos:R:3 gdb_126963=T pbc="F F F"
C        0.12440000       1.53920000       0.04490000
C       -0.10310000       0.03400000       0.11080000
N        0.68710000      -0.55420000       1.19090000
C        0.78730000      -1.89580000       1.30120000
N        0.41390000      -2.78360000       0.44070000
O        0.84310000      -4.01880000       1.04960000
C        1.40770000      -3.74770000       2.25050000
N        1.89200000      -4.51790000       3.11310000
O        1.38100000      -2.37890000       2.41950000
H        1.17880000       1.76990000      -0.13070000
H       -0.46550000       1.97240000      -0.76670000
H       -0.18430000       2.02840000       0.97590000
H       -1.17060000      -0.19260000       0.24070000
H        0.21110000      -0.44820000      -0.81930000
H        0.72380000      -0.05370000       2.06680000
H        1.81880000      -5.48620000       2.81130000
