16
Properties=species:S:1:pos:R:3 gdb_76021=T pbc="F F F"
C       -0.27020000       1.46550000      -0.02370000
N        0.04060000       0.04060000       0.05620000
C        1.36520000      -0.45310000      -0.30690000
C        2.43050000       0.45720000      -0.65290000
N        3.26930000       1.19640000      -0.94920000
C        0.87790000      -0.47770000       1.13540000
C        1.51410000       0.40190000       2.19840000
C        0.43490000      -1.76870000       1.63780000
N        0.10610000      -2.79390000       2.05720000
H        0.57450000       2.13510000       0.17720000
H       -0.63850000       1.67030000      -1.03220000
H       -1.07430000       1.67910000       0.68460000
H        1.37070000      -1.37790000      -0.87760000
H        1.97020000       1.29390000       1.76870000
H        0.76340000       0.70360000       2.93430000
H        2.29330000      -0.15870000       2.72110000
