22
Properties=species:S:1:pos:R:3 gdb_105054=T pbc="F F F"
C       -0.46250000       1.50000000      -0.17090000
C       -0.30530000      -0.01680000      -0.30790000
C        0.78730000      -0.52760000      -1.24290000
C        1.23620000       0.26640000      -2.41470000
N        2.12180000       0.09330000      -1.24360000
C        0.81430000      -2.03780000      -1.34680000
O       -0.37860000      -2.58920000      -1.85530000
C        2.05940000      -2.75430000      -1.76280000
C        1.57810000      -2.84570000      -0.32720000
H        0.45700000       1.98700000       0.17260000
H       -0.76070000       1.96750000      -1.11370000
H       -1.23700000       1.73020000       0.56660000
H       -0.12320000      -0.45050000       0.68520000
H       -1.25810000      -0.43560000      -0.65410000
H        1.56410000      -0.25060000      -3.31190000
H        0.80100000       1.24560000      -2.58830000
H        2.11440000       0.94080000      -0.68240000
H       -1.00360000      -2.67050000      -1.12760000
H        1.91590000      -3.62450000      -2.39230000
H        2.94420000      -2.16050000      -1.95440000
H        2.14530000      -2.31020000       0.42630000
H        1.13770000      -3.78200000      -0.00140000
