21
Properties=species:S:1:pos:R:3 gdb_63947=T pbc="F F F"
C       -0.13820000       1.57850000       0.00630000
C       -0.01140000       0.05320000      -0.01530000
C       -1.39780000      -0.60650000      -0.00840000
C        0.86880000      -0.48720000      -1.20020000
C        1.96210000      -1.26780000      -0.43940000
C        2.89880000      -0.26820000       0.26080000
O        2.04460000       0.24580000       1.29670000
C        0.83570000      -0.50120000       1.16440000
O        1.24680000      -1.77360000       0.70440000
H        0.84220000       2.05910000       0.03030000
H       -0.68070000       1.93330000      -0.87650000
H       -0.69420000       1.91270000       0.88990000
H       -1.95580000      -0.34210000      -0.91310000
H       -1.31120000      -1.69560000       0.03320000
H       -1.98840000      -0.27590000       0.85380000
H        0.29660000      -1.15320000      -1.85070000
H        1.28590000       0.31420000      -1.81610000
H        2.44860000      -2.08240000      -0.97370000
H        3.76970000      -0.75830000       0.71110000
H        3.23530000       0.54310000      -0.39350000
H        0.34210000      -0.57150000       2.13450000
