15
Properties=species:S:1:pos:R:3 gdb_54752=T pbc="F F F"
N       -0.04210000       1.30440000       0.03530000
C       -0.05370000      -0.06080000      -0.04750000
O        0.75080000      -0.71760000      -0.67070000
N       -1.11230000      -0.62770000       0.72480000
C       -1.64140000      -1.89500000       0.26110000
C       -2.55410000      -2.40730000       1.38450000
C       -3.41030000      -1.12100000       1.16270000
O       -4.46980000      -0.74970000       1.56740000
C       -2.46260000      -0.64170000       0.07200000
H        0.78980000       1.76130000      -0.30110000
H       -0.54350000       1.74810000       0.78700000
H       -1.11210000      -2.45280000      -0.49780000
H       -3.13860000      -3.29170000       1.11490000
H       -2.09180000      -2.54460000       2.36360000
H       -2.64290000      -0.03480000      -0.80630000
