21
Properties=species:S:1:pos:R:3 gdb_122085=T pbc="F F F"
C        0.62840000       0.94850000      -0.98480000
C       -0.12770000       0.18230000       0.09590000
N        0.79790000      -0.54660000       0.96080000
C        0.13630000      -1.33490000       1.98440000
C        1.16230000      -1.92740000       2.96190000
O        0.45490000      -2.62280000       3.95710000
C        1.25460000      -3.05860000       5.04330000
C        2.11020000      -2.81830000       2.24760000
N        2.83790000      -3.51560000       1.68150000
H        1.17670000       0.26420000      -1.64230000
H       -0.06300000       1.52320000      -1.60770000
H        1.35070000       1.63630000      -0.53600000
H       -0.68910000       0.88500000       0.72530000
H       -0.87820000      -0.48060000      -0.37370000
H        1.37880000      -1.15300000       0.38770000
H       -0.51400000      -0.67980000       2.57370000
H       -0.49280000      -2.15620000       1.59990000
H        1.75390000      -1.10350000       3.39030000
H        0.58160000      -3.54310000       5.75280000
H        2.01810000      -3.77930000       4.72130000
H        1.75230000      -2.21170000       5.53800000
