22
Properties=species:S:1:pos:R:3 gdb_106791=T pbc="F F F"
C        0.03110000       1.48710000      -0.40750000
C        0.02900000       0.09570000       0.23870000
C       -1.34880000      -0.52500000       0.28070000
N       -1.88480000      -1.03040000      -1.01310000
C       -1.68840000      -1.98060000       0.09440000
C       -0.69640000      -3.09030000      -0.14880000
C       -2.90700000      -2.27940000       0.97720000
C       -3.26660000      -0.93690000       1.57340000
C       -2.39340000       0.00770000       1.21620000
H        1.04390000       1.89890000      -0.45160000
H       -0.36060000       1.43080000      -1.42750000
H       -0.58900000       2.19540000       0.15270000
H        0.69850000      -0.56130000      -0.32510000
H        0.42780000       0.15380000       1.25960000
H       -2.86620000      -0.77320000      -1.10320000
H        0.12620000      -2.75030000      -0.78130000
H       -0.28420000      -3.46610000       0.79430000
H       -1.17940000      -3.93080000      -0.66120000
H       -3.73230000      -2.72290000       0.40330000
H       -2.65360000      -3.00960000       1.75810000
H       -4.14510000      -0.78490000       2.19020000
H       -2.42490000       1.04590000       1.52720000
