17
Properties=species:S:1:pos:R:3 gdb_97044=T pbc="F F F"
C       -0.21410000       1.42460000       0.11900000
N       -0.24390000      -0.00710000      -0.14030000
C        0.62230000      -0.51410000      -0.90320000
C        0.58690000      -1.99050000      -1.23360000
N        1.93520000      -2.51860000      -1.37630000
C        2.88570000      -1.85190000      -2.08510000
O        3.95940000      -2.31270000      -2.41330000
C        2.45840000      -0.43110000      -2.45020000
O        1.63280000       0.20470000      -1.46990000
H        0.18780000       2.01440000      -0.71290000
H       -1.22930000       1.76310000       0.34340000
H        0.40220000       1.63140000       1.00300000
H        0.06790000      -2.49970000      -0.42270000
H       -0.00410000      -2.14390000      -2.15060000
H        2.12040000      -3.48870000      -1.16840000
H        3.35330000       0.18240000      -2.54950000
H        1.94430000      -0.45120000      -3.42200000
