18
Properties=species:S:1:pos:R:3 gdb_51210=T pbc="F F F"
O       -0.04710000       0.03710000       0.88060000
C        0.03330000       1.16790000       0.45450000
N        1.18110000       1.75770000       0.01070000
C        2.42730000       1.06610000      -0.07060000
C        2.90510000       0.01450000      -1.09400000
C        4.09090000       0.20600000      -0.12600000
C        3.83160000       1.74660000       0.02940000
C        3.84370000       1.66880000       1.56950000
C        3.15880000       0.36050000       1.12470000
H       -0.83360000       1.85650000       0.39040000
H        1.11140000       2.67830000      -0.39530000
H        2.39530000      -0.95200000      -1.06750000
H        3.04880000       0.35760000      -2.12420000
H        5.06910000      -0.27100000      -0.13580000
H        4.20750000       2.52790000      -0.63540000
H        4.82290000       1.57400000       2.04810000
H        3.22130000       2.39150000       2.10560000
H        2.73600000      -0.44680000       1.71950000
