15
Properties=species:S:1:pos:R:3 gdb_10244=T pbc="F F F"
C        0.04920000       1.43470000      -0.17550000
C       -0.24350000      -0.04180000      -0.11690000
N       -0.69240000      -0.68400000       0.88360000
N        0.07350000      -0.82070000      -1.27470000
C       -0.07720000      -0.38510000      -2.59650000
N       -0.59660000       0.73000000      -2.90790000
C        0.52540000      -2.14130000      -1.08070000
O        0.77650000      -2.90340000      -1.97970000
H        1.03790000       1.62190000      -0.60430000
H       -0.67130000       1.94300000      -0.81760000
H        0.00830000       1.84910000       0.83440000
H       -0.80800000      -0.06100000       1.68210000
H        0.29030000      -1.14620000      -3.28590000
H       -0.60720000       0.83240000      -3.92120000
H        0.62970000      -2.37460000      -0.01400000
