19
Properties=species:S:1:pos:R:3 gdb_95967=T pbc="F F F"
O        0.10550000       1.15750000      -0.54620000
C        0.07390000      -0.16460000      -0.05420000
C        0.48470000      -0.34700000       1.41390000
C       -0.20760000      -1.66820000       1.75460000
O       -1.37100000      -1.73630000       0.91810000
C       -1.36260000      -0.70220000      -0.04710000
C       -2.52400000       0.32110000       0.05570000
O       -3.00370000      -0.03900000      -1.25620000
C       -2.01610000      -1.07680000      -1.39090000
H        1.02400000       1.42020000      -0.65560000
H        0.68060000      -0.83000000      -0.69060000
H        1.56650000      -0.37890000       1.56840000
H        0.07430000       0.48270000       1.99920000
H        0.44080000      -2.52900000       1.53910000
H       -0.51920000      -1.73590000       2.80190000
H       -3.23930000       0.06350000       0.84650000
H       -2.24530000       1.37700000       0.11660000
H       -1.39250000      -0.94000000      -2.28370000
H       -2.45540000      -2.08190000      -1.39400000
