17
Properties=species:S:1:pos:R:3 gdb_66073=T pbc="F F F"
C       -0.25140000       1.55980000       0.10310000
C        0.00820000       0.05530000      -0.01340000
C        0.84620000      -0.40600000      -1.26290000
C        1.92790000      -0.94270000      -0.28480000
N        1.10940000      -0.45280000       0.82490000
C        1.21220000      -0.71000000       2.15450000
O        2.15400000      -1.28130000       2.65830000
C       -1.24570000      -0.69640000       0.15750000
N       -2.23340000      -1.28250000       0.28770000
H        0.68870000       2.10170000      -0.02700000
H       -0.96020000       1.88190000      -0.66530000
H       -0.66950000       1.81100000       1.08150000
H        0.35930000      -1.16070000      -1.87820000
H        1.16090000       0.43010000      -1.88760000
H        2.05750000      -2.02880000      -0.27740000
H        2.91130000      -0.46930000      -0.34920000
H        0.34190000      -0.32920000       2.72540000
