20
Properties=species:S:1:pos:R:3 gdb_74058=T pbc="F F F"
C        0.04950000       1.50330000       0.06830000
C       -0.02290000       0.01610000      -0.05430000
C       -0.05180000      -0.73290000      -1.19420000
C       -0.06580000      -2.13320000      -0.82530000
O       -0.10870000      -3.13720000      -1.51100000
C       -0.01300000      -2.17490000       0.73330000
C       -1.20110000      -2.97420000       1.27460000
C        1.32620000      -2.77680000       1.17600000
N       -0.10720000      -0.74930000       1.08160000
H        0.92880000       1.80440000       0.65070000
H        0.11090000       1.97350000      -0.91390000
H       -0.83250000       1.89070000       0.58990000
H       -0.07520000      -0.35260000      -2.20380000
H       -1.19100000      -3.97200000       0.82780000
H       -1.15270000      -3.07100000       2.36440000
H       -2.14480000      -2.48830000       1.01260000
H        2.16610000      -2.17820000       0.80980000
H        1.39030000      -2.84190000       2.26820000
H        1.42110000      -3.78440000       0.76180000
H        0.31760000      -0.41620000       1.93460000
