18
Properties=species:S:1:pos:R:3 gdb_51806=T pbc="F F F"
O        0.00050000      -0.01940000      -0.13850000
C        0.01900000       1.17450000      -0.16290000
O        1.07660000       1.89870000       0.23940000
C        0.99510000       3.32880000       0.17090000
C        1.14430000       3.96380000       1.56910000
C        1.76140000       5.35800000       1.31480000
C        2.57250000       5.16910000       0.04120000
N        3.40630000       3.95250000       0.08000000
C        2.11940000       3.93320000      -0.64490000
H       -0.82370000       1.80330000      -0.51590000
H        0.03700000       3.60630000      -0.29050000
H        0.19540000       4.00470000       2.10860000
H        1.83510000       3.34150000       2.14020000
H        0.98360000       6.11010000       1.13860000
H        2.36950000       5.70110000       2.15710000
H        2.92100000       6.03140000      -0.51790000
H        4.16170000       4.03320000      -0.59550000
H        2.11510000       3.82960000      -1.72480000
