19
Properties=species:S:1:pos:R:3 gdb_114669=T pbc="F F F"
C        0.12020000       1.29900000       0.06380000
O       -0.05720000      -0.10110000      -0.06230000
C        0.61150000      -0.65170000      -1.14980000
O        2.05080000      -0.58460000      -1.00090000
C        2.40950000      -1.97730000      -0.97810000
C        1.59370000      -2.56910000      -2.15200000
C        0.41420000      -2.16600000      -1.21000000
C        1.33610000      -2.58610000      -0.02300000
O        1.35630000      -3.98600000       0.13280000
H        1.16980000       1.55260000       0.25260000
H       -0.21370000       1.82650000      -0.84250000
H       -0.49070000       1.62360000       0.90870000
H        0.33660000      -0.11430000      -2.07080000
H        3.48610000      -2.08550000      -0.84770000
H        1.68290000      -2.06510000      -3.11700000
H        1.69030000      -3.64850000      -2.24860000
H       -0.60310000      -2.53610000      -1.31850000
H        1.18610000      -2.05940000       0.92440000
H        2.04450000      -4.20200000       0.76980000
