20
Properties=species:S:1:pos:R:3 gdb_122757=T pbc="F F F"
C       -0.11770000       1.49760000      -0.29380000
C       -0.03170000       0.01580000       0.08160000
C       -1.39900000      -0.67490000       0.10710000
C       -1.30070000      -2.15890000       0.48250000
N       -2.59090000      -2.82870000       0.52300000
C       -3.04200000      -3.61390000      -0.49670000
O       -2.40230000      -3.87050000      -1.50120000
C       -4.38440000      -4.14030000      -0.26960000
C       -5.48970000      -4.58740000      -0.11460000
H        0.87230000       1.96360000      -0.30530000
H       -0.55940000       1.62820000      -1.28760000
H       -0.73860000       2.05160000       0.41910000
H        0.62230000      -0.50570000      -0.62920000
H        0.44640000      -0.08640000       1.06510000
H       -2.05900000      -0.16090000       0.81960000
H       -1.87840000      -0.59370000      -0.87600000
H       -0.69730000      -2.69550000      -0.25340000
H       -0.81640000      -2.27110000       1.46020000
H       -3.22200000      -2.64000000       1.28530000
H       -6.46530000      -4.99040000       0.00860000
