18
Properties=species:S:1:pos:R:3 gdb_75932=T pbc="F F F"
O        0.43190000       0.73230000      -0.85640000
C        0.09350000      -0.37580000      -0.06840000
C        0.42930000      -0.12930000       1.40850000
O        1.34880000       0.56500000       1.79480000
N       -0.49360000      -0.79750000       2.14610000
C       -1.56490000      -1.39990000       1.35550000
C       -1.38930000      -0.71900000      -0.00430000
C       -2.40990000       0.26010000      -0.51770000
C       -2.21320000      -1.07490000      -1.20210000
H        1.08190000       1.22600000      -0.33310000
H        0.66440000      -1.26550000      -0.39240000
H       -0.45800000      -0.81520000       3.15280000
H       -1.44330000      -2.49040000       1.28710000
H       -2.54550000      -1.19740000       1.79810000
H       -3.31450000       0.40890000       0.06280000
H       -2.02800000       1.14340000      -1.01470000
H       -1.72150000      -1.08220000      -2.16920000
H       -2.98630000      -1.82870000      -1.08730000
