21
Properties=species:S:1:pos:R:3 gdb_86795=T pbc="F F F"
C       -0.01990000       1.62500000       0.00230000
C        0.02870000       0.09330000       0.03010000
C        0.78690000      -0.53780000      -1.16830000
C        1.50740000      -1.79230000      -0.61130000
C        2.88670000      -2.04070000      -1.26570000
C        3.54860000      -3.24370000      -0.77570000
C        4.06970000      -4.24240000      -0.35510000
C        1.56020000      -1.50540000       0.87320000
C        0.76600000      -0.49370000       1.21560000
H        0.99090000       2.04780000       0.00740000
H       -0.53260000       1.98680000      -0.89530000
H       -0.55370000       2.02150000       0.87270000
H       -1.00960000      -0.27390000       0.04370000
H        0.13350000      -0.76410000      -2.01560000
H        1.54050000       0.17740000      -1.52300000
H        0.90170000      -2.69330000      -0.78640000
H        2.75980000      -2.11270000      -2.35380000
H        3.52850000      -1.16790000      -1.08710000
H        4.54100000      -5.12180000       0.00770000
H        2.15900000      -2.10280000       1.55160000
H        0.61360000      -0.13040000       2.22710000
