20
Properties=species:S:1:pos:R:3 gdb_120077=T pbc="F F F"
C        0.04720000       1.39480000       0.11260000
O       -0.01970000      -0.00870000       0.18210000
C       -1.28580000      -0.51840000      -0.18270000
C       -1.22660000      -2.02740000      -0.10300000
C       -1.22420000      -2.70950000       1.27130000
C       -2.76040000      -2.54860000       1.50060000
C       -2.86200000      -4.04820000       1.74570000
N       -1.79320000      -4.02060000       0.65740000
C       -2.53150000      -2.83160000      -0.01760000
H        1.05600000       1.69050000       0.41100000
H       -0.14410000       1.76390000      -0.90780000
H       -0.67840000       1.87390000       0.78970000
H       -2.06720000      -0.11900000       0.48690000
H       -1.54790000      -0.20040000      -1.20710000
H       -0.49010000      -2.43870000      -0.80070000
H       -0.43840000      -2.75110000       2.02670000
H       -3.29740000      -1.71520000       1.96510000
H       -2.49950000      -4.44260000       2.70090000
H       -3.78000000      -4.56280000       1.44220000
H       -3.28940000      -3.02010000      -0.78110000
