19
Properties=species:S:1:pos:R:3 gdb_111715=T pbc="F F F"
C        0.01670000       0.99360000       0.44370000
O       -0.22140000       0.00640000      -0.54350000
C       -1.39970000      -0.69540000      -0.33070000
C       -1.57780000      -2.03760000      -0.93260000
C       -0.25750000      -2.81360000      -0.94300000
C       -0.13600000      -2.64050000       0.60080000
C       -1.47370000      -1.87280000       0.62790000
C       -2.47340000      -1.98720000       1.63110000
C       -3.31380000      -2.08780000       2.48860000
H        0.96230000       1.47830000       0.19150000
H       -0.78170000       1.75030000       0.45490000
H        0.09000000       0.55230000       1.44700000
H       -2.29650000      -0.07340000      -0.31120000
H       -2.45690000      -2.28160000      -1.51730000
H       -0.39100000      -3.85740000      -1.23170000
H        0.53760000      -2.37150000      -1.54710000
H       -0.20160000      -3.58860000       1.13590000
H        0.73010000      -2.08260000       0.96540000
H       -4.05460000      -2.17690000       3.24360000
