17
Properties=species:S:1:pos:R:3 gdb_34526=T pbc="F F F"
C        0.07830000      -1.18930000      -0.01730000
C       -0.02250000       0.01280000      -0.01480000
C       -0.07710000       1.41860000      -0.01950000
C       -1.14080000       2.23820000      -0.00480000
C       -0.61190000       3.68050000       0.03640000
C        0.63860000       3.49110000      -0.87630000
C        1.18220000       2.33480000       0.01280000
C        1.17990000       3.06070000       1.36940000
C        0.11550000       3.86230000       1.38550000
H        0.14720000      -2.24850000      -0.01860000
H       -2.18410000       1.95660000       0.02640000
H       -1.32920000       4.45540000      -0.23080000
H        0.38880000       3.17570000      -1.89290000
H        1.29520000       4.36490000      -0.89190000
H        2.11130000       1.84870000      -0.27910000
H        1.89770000       2.88110000       2.15800000
H       -0.24250000       4.48880000       2.19120000
