16
Properties=species:S:1:pos:R:3 gdb_78149=T pbc="F F F"
C       -0.04640000       1.48350000       0.01990000
C        0.07720000      -0.01550000      -0.06730000
C        0.77060000      -0.68200000      -1.21010000
N        1.42650000      -0.59140000       0.11690000
C        1.35200000      -1.89610000       0.73520000
O        1.72000000      -2.10130000       1.85490000
C        0.75080000      -2.91110000      -0.23760000
C        0.42080000      -2.11550000      -1.49910000
O        0.03570000      -2.54960000      -2.55300000
H        0.81100000       1.96990000      -0.45060000
H       -0.96200000       1.81940000      -0.47730000
H       -0.08840000       1.79930000       1.06670000
H       -0.74320000      -0.57090000       0.38740000
H        1.17890000      -0.07950000      -2.01490000
H        1.47660000      -3.69690000      -0.47100000
H       -0.12120000      -3.41010000       0.19500000
