16
Properties=species:S:1:pos:R:3 gdb_66825=T pbc="F F F"
O       -0.26340000       1.49870000       0.05230000
C       -0.15760000       0.12290000      -0.01680000
C       -1.31280000      -0.87410000       0.07790000
C       -0.82170000      -1.99790000      -0.74810000
C        0.32890000      -1.61490000      -1.55690000
C        0.82930000      -0.45570000      -1.04720000
C        1.92980000      -0.70340000       0.00440000
C        0.65620000      -0.79240000       0.93230000
N       -0.43790000      -1.86530000       0.78660000
H       -0.71030000       1.73080000       0.87410000
H       -2.34930000      -0.70370000       0.34810000
H       -1.42760000      -2.88080000      -0.91430000
H        0.95970000      -2.37570000      -2.00680000
H        2.55960000      -1.58170000      -0.13900000
H        2.53080000       0.15740000       0.31450000
H        0.76850000      -0.57560000       1.99730000
