17
Properties=species:S:1:pos:R:3 gdb_74129=T pbc="F F F"
C        0.05150000       1.55540000       0.06250000
C       -0.03600000       0.06500000      -0.09100000
C        0.08800000      -0.60370000      -1.25860000
C        0.00680000      -2.06870000      -1.34150000
O        0.11880000      -2.68000000      -2.40160000
C       -0.23940000      -2.72010000      -0.06000000
H       -0.34680000      -3.79840000      -0.04930000
C       -0.35360000      -2.01150000       1.09380000
N       -0.50480000      -2.55800000       2.37110000
H       -0.63590000      -3.56000000       2.34410000
H       -1.24380000      -2.12770000       2.91520000
N       -0.26770000      -0.63860000       1.07740000
H        0.85990000       1.83840000       0.74820000
H        0.24660000       2.02530000      -0.90200000
H       -0.88070000       1.96980000       0.46480000
H        0.25300000      -0.06040000      -2.18110000
H       -0.18170000      -0.16010000       1.96000000
