17
Properties=species:S:1:pos:R:3 gdb_87468=T pbc="F F F"
C       -0.05960000       1.52670000      -0.01680000
C        0.02260000       0.01640000       0.00860000
C        1.34860000      -0.69050000      -0.25740000
C        0.73620000      -0.69770000       1.10470000
C        1.19150000      -0.23240000       2.49460000
O       -0.10620000      -0.72820000       3.03310000
C        0.27070000      -1.79790000       2.06640000
C        1.67240000      -1.69610000       2.74170000
O        2.52580000      -2.33740000       3.25510000
H        0.85910000       1.97860000       0.37140000
H       -0.20440000       1.89390000      -1.03840000
H       -0.89330000       1.88670000       0.59450000
H       -0.85680000      -0.49210000      -0.37960000
H        1.34100000      -1.61010000      -0.83330000
H        2.22440000      -0.06900000      -0.41810000
H        1.55350000       0.73200000       2.84300000
H       -0.42330000      -2.62270000       1.92000000
