21
Properties=species:S:1:pos:R:3 gdb_84086=T pbc="F F F"
C        0.79070000       1.57070000      -0.05380000
C        0.16900000       0.16960000       0.05520000
C        0.52830000      -0.77040000      -1.14190000
O        0.86590000      -0.12450000      -2.34330000
C        1.68260000      -1.66890000      -0.61200000
O        2.96170000      -1.15230000      -1.03360000
C        1.48710000      -1.62100000       0.87400000
C        0.67710000      -0.62160000       1.24830000
C        0.28550000      -0.27240000       2.64980000
H        1.88540000       1.52430000      -0.06080000
H        0.47500000       2.04770000      -0.98440000
H        0.49010000       2.20630000       0.78490000
H       -0.92000000       0.29490000       0.11990000
H       -0.33940000      -1.41210000      -1.33710000
H        1.83510000      -0.13340000      -2.36810000
H        1.64090000      -2.67520000      -1.03920000
H        3.23770000      -0.50750000      -0.37260000
H        1.98530000      -2.30600000       1.55240000
H        0.74870000      -0.94180000       3.37970000
H        0.57300000       0.75630000       2.89840000
H       -0.80320000      -0.32810000       2.77510000
