18
Properties=species:S:1:pos:R:3 gdb_2577=T pbc="F F F"
C        0.08070000       0.62050000       0.93310000
C        0.31600000      -0.73320000       0.24790000
C        0.67150000      -0.63920000      -1.22720000
C        1.97190000       0.06840000      -1.58690000
O        1.83020000       1.47770000      -1.54850000
C        0.14730000      -1.67100000      -2.15780000
N       -0.39590000      -0.29830000      -2.19630000
H        0.95460000       1.26890000       0.84620000
H       -0.76230000       1.15140000       0.47730000
H       -0.14960000       0.47870000       1.99350000
H        1.12100000      -1.27080000       0.76620000
H       -0.58100000      -1.35770000       0.35390000
H        2.76030000      -0.18770000      -0.87110000
H        2.30370000      -0.26380000      -2.58220000
H        1.05350000       1.66560000      -2.09130000
H        0.71960000      -1.96030000      -3.03520000
H       -0.47620000      -2.46100000      -1.74680000
H       -1.29700000      -0.27380000      -1.72460000
