15
Properties=species:S:1:pos:R:3 gdb_28749=T pbc="F F F"
O       -0.13340000       1.44920000      -0.26640000
C        0.00110000       0.10770000      -0.11500000
C        0.47750000      -0.89610000      -0.91760000
C        0.33790000      -2.12170000      -0.17890000
C       -0.20290000      -1.79400000       1.03220000
N       -0.40730000      -0.43080000       1.07630000
O       -0.58350000      -2.52960000       2.11650000
C        0.32670000      -3.41080000       2.62010000
N       -0.03430000      -4.22610000       3.50790000
H        0.14910000       1.68250000      -1.15580000
H        0.87030000      -0.78530000      -1.91600000
H        0.58550000      -3.11470000      -0.51770000
H       -0.80890000       0.07750000       1.84550000
H        1.31630000      -3.29270000       2.16390000
H        0.75730000      -4.79740000       3.79590000
