16
Properties=species:S:1:pos:R:3 gdb_9463=T pbc="F F F"
C       -0.12590000       1.76040000       0.36380000
C        0.02780000       0.27360000       0.05140000
C        0.73480000      -0.18900000      -1.25660000
C        1.67430000      -1.13500000      -0.44840000
C        1.19120000      -0.44350000       0.82450000
O        1.58980000      -0.34260000       1.94520000
C       -1.25920000      -0.48410000       0.31690000
O       -1.67450000      -1.39480000      -0.35390000
H        0.83350000       2.27660000       0.27070000
H       -0.83840000       2.23750000      -0.31690000
H       -0.48060000       1.90320000       1.38940000
H        0.07410000      -0.68360000      -1.96760000
H        1.27140000       0.62720000      -1.74340000
H        1.34550000      -2.17900000      -0.47940000
H        2.75020000      -1.09720000      -0.63270000
H       -1.80090000      -0.14440000       1.22710000
