19
Properties=species:S:1:pos:R:3 gdb_113520=T pbc="F F F"
O        0.13640000       0.50690000       0.89260000
C       -0.20730000       0.15370000      -0.44150000
C       -1.52420000      -0.57360000      -0.40960000
C       -1.80770000      -1.66660000      -1.39110000
C       -1.54250000      -2.01790000       0.05510000
C       -0.41660000      -2.83880000       0.71060000
C       -1.45510000      -3.40060000       1.73840000
C       -2.54630000      -2.57970000       1.01940000
O       -3.72980000      -2.44250000       1.16100000
H        0.91660000       1.06890000       0.86320000
H       -0.29570000       1.04770000      -1.07850000
H        0.56150000      -0.49450000      -0.89180000
H       -2.37000000       0.02120000      -0.07590000
H       -2.82540000      -1.79130000      -1.74560000
H       -1.03520000      -1.92730000      -2.10840000
H        0.02850000      -3.60110000       0.06700000
H        0.37300000      -2.23200000       1.15620000
H       -1.62190000      -4.48100000       1.71070000
H       -1.29690000      -3.10010000       2.77770000
