15
Properties=species:S:1:pos:R:3 gdb_3591=T pbc="F F F"
C       -0.02390000       1.50460000       0.06020000
C        1.29790000       0.78400000       0.02080000
O        1.98130000       0.54530000       1.22890000
C        1.31910000      -0.44920000       1.97450000
C        0.00400000      -0.11670000       2.62860000
C        0.03050000      -0.82010000       1.28360000
C        0.01660000      -0.01180000       0.00320000
H       -0.32650000       2.00640000       0.97110000
H       -0.32640000       2.01480000      -0.84890000
H        1.96690000       0.89920000      -0.82540000
H        2.00230000      -1.15690000       2.43210000
H       -0.27930000      -0.72080000       3.48480000
H       -0.30800000       0.91840000       2.69450000
H       -0.31240000      -1.84580000       1.22370000
H       -0.33540000      -0.51040000      -0.89160000
