23
Properties=species:S:1:pos:R:3 gdb_120142=T pbc="F F F"
C        0.23310000       1.66680000      -0.39040000
C        0.34600000       0.14440000      -0.27940000
C        0.83570000      -0.32000000       1.10010000
C        0.95070000      -1.82900000       1.18360000
C        2.21940000      -2.58670000       0.95420000
O        3.34880000      -1.88680000       1.49020000
C        2.85690000      -2.11260000       2.84810000
C        2.92890000      -0.90810000       3.76540000
C        1.54100000      -2.67420000       2.30730000
H        1.20230000       2.14820000      -0.21940000
H       -0.11940000       1.97080000      -1.38100000
H       -0.46870000       2.06680000       0.35010000
H       -0.63000000      -0.31240000      -0.49220000
H        1.03240000      -0.23260000      -1.04810000
H        1.81480000       0.12540000       1.29930000
H        0.14920000       0.05100000       1.87310000
H        0.09620000      -2.35470000       0.75530000
H        2.40780000      -3.32030000       0.17810000
H        3.44460000      -2.93380000       3.28270000
H        3.96340000      -0.55710000       3.84180000
H        2.30650000      -0.08210000       3.41960000
H        2.59690000      -1.19390000       4.76960000
H        0.99090000      -3.49010000       2.75780000
