22
Properties=species:S:1:pos:R:3 gdb_13867=T pbc="F F F"
C       -0.01720000       1.59550000      -0.08750000
C        0.00490000       0.05570000      -0.03550000
C       -1.41730000      -0.50140000       0.16260000
C        0.67030000      -0.53520000      -1.25210000
C        1.79130000      -1.26070000      -1.26570000
C        2.16740000      -1.74200000      -2.64580000
C        1.25440000      -0.89080000      -3.56400000
C        0.09450000      -0.41490000      -2.65510000
H        0.99230000       2.00120000      -0.20380000
H       -0.62410000       1.95770000      -0.92440000
H       -0.44630000       2.00620000       0.83260000
H        0.60390000      -0.23770000       0.83640000
H       -2.07240000      -0.22160000      -0.66970000
H       -1.40890000      -1.59360000       0.23120000
H       -1.86290000      -0.10560000       1.08130000
H        2.36250000      -1.52140000      -0.37990000
H        3.23130000      -1.60970000      -2.87430000
H        1.96480000      -2.81810000      -2.75190000
H        1.81380000      -0.01950000      -3.91980000
H        0.90800000      -1.43460000      -4.44680000
H       -0.79130000      -1.05780000      -2.75950000
H       -0.23760000       0.59970000      -2.90200000
