20
Properties=species:S:1:pos:R:3 gdb_31699=T pbc="F F F"
C        0.14910000       1.52100000       0.20210000
C       -0.08920000       0.02490000      -0.07480000
C        0.58370000      -0.47550000      -1.31440000
C        0.06350000      -0.80650000      -2.54770000
C        1.15100000      -1.19200000      -3.37990000
O        0.98190000      -1.58390000      -4.67040000
C        2.16480000      -1.94260000      -5.35050000
C        2.31250000      -1.09010000      -2.64330000
N        1.94200000      -0.64920000      -1.38500000
H        1.21500000       1.73850000       0.32780000
H       -0.21570000       2.13070000      -0.62970000
H       -0.36690000       1.83770000       1.11420000
H        0.24090000      -0.56010000       0.79500000
H       -1.16340000      -0.15980000      -0.17370000
H       -0.97630000      -0.78100000      -2.83380000
H        2.86920000      -1.09980000      -5.40130000
H        2.66720000      -2.78950000      -4.86130000
H        1.87480000      -2.23130000      -6.36250000
H        3.34070000      -1.29060000      -2.88780000
H        2.58040000      -0.49450000      -0.62530000
