11
Properties=species:S:1:pos:R:3 gdb_3632=T pbc="F F F"
C        0.10600000      -1.18640000      -0.00540000
C       -0.00590000       0.01260000       0.00290000
C       -0.11610000       1.41790000       0.01230000
C       -1.21530000       2.26670000       0.03160000
C       -0.66830000       3.56200000       0.03170000
N        0.66470000       3.54040000       0.01410000
N        0.97640000       2.23870000       0.00260000
H        0.19580000      -2.24460000      -0.01250000
H       -2.25100000       1.97150000       0.04350000
H       -1.18690000       4.50900000       0.04390000
H        1.94230000       1.95570000      -0.01170000
