21
Properties=species:S:1:pos:R:3 gdb_113565=T pbc="F F F"
C       -0.28490000       1.38420000       0.01160000
C        0.27270000      -0.03910000      -0.10230000
C        0.92650000      -0.52000000       1.17660000
C        0.08300000      -1.07960000       2.30980000
C        0.97370000      -1.99550000       1.50800000
O        0.34800000      -2.90340000       0.61880000
C        1.12320000      -4.10030000       0.53570000
C        2.26920000      -3.89150000       1.48810000
C        2.16850000      -2.68500000       2.03830000
H        0.50560000       2.10330000       0.25390000
H       -0.74890000       1.70370000      -0.92710000
H       -1.04180000       1.44830000       0.80050000
H       -0.52450000      -0.73640000      -0.37850000
H        1.00640000      -0.08260000      -0.91770000
H        1.80200000       0.05140000       1.48070000
H        0.34600000      -0.85320000       3.33800000
H       -0.98160000      -1.18460000       2.12500000
H        0.49550000      -4.96330000       0.80690000
H        1.46000000      -4.25740000      -0.50160000
H        3.03840000      -4.63130000       1.66610000
H        2.83690000      -2.23300000       2.75940000
