20
Properties=species:S:1:pos:R:3 gdb_51542=T pbc="F F F"
N       -0.23910000       1.11690000      -0.25170000
C       -0.30590000      -0.13770000      -0.37000000
O       -1.04580000      -0.85830000       0.49970000
C       -1.06570000      -2.25030000       0.28300000
C       -2.19840000      -2.98720000       0.92710000
C       -2.15000000      -2.84680000      -0.57100000
C       -3.08730000      -2.05240000      -1.48900000
C       -2.61350000      -2.95250000      -2.67000000
C       -1.94500000      -3.92070000      -1.64800000
H        0.36270000       1.50110000      -0.97710000
H        0.19600000      -0.75250000      -1.12990000
H       -0.07780000      -2.70840000       0.27460000
H       -1.99180000      -3.95310000       1.37690000
H       -2.92320000      -2.37950000       1.45940000
H       -4.14270000      -2.19940000      -1.24070000
H       -2.90030000      -0.97910000      -1.57200000
H       -3.39340000      -3.37650000      -3.30530000
H       -1.88260000      -2.45120000      -3.30920000
H       -0.91490000      -4.22740000      -1.85240000
H       -2.54240000      -4.81940000      -1.46430000
