18
Properties=species:S:1:pos:R:3 gdb_44567=T pbc="F F F"
O       -0.02980000      -0.02950000       0.47170000
C       -0.06190000       1.13580000       0.20200000
C       -1.19230000       2.14690000      -0.07730000
C       -0.11030000       3.10140000      -0.66010000
C        1.02820000       2.19150000      -0.09070000
C        2.04050000       1.96110000      -1.22520000
C        1.31350000       2.45360000      -2.47560000
C        0.01800000       1.81720000      -2.80900000
N        0.03960000       3.12370000      -2.12580000
H       -2.00490000       1.82560000      -0.73250000
H       -1.62350000       2.52160000       0.85700000
H       -0.15190000       4.13220000      -0.30650000
H        1.49020000       2.53420000       0.83960000
H        2.94570000       2.55240000      -1.05820000
H        2.34300000       0.91180000      -1.30030000
H        1.90600000       2.92260000      -3.25620000
H       -0.36910000       1.85450000      -3.82350000
H       -0.26350000       0.91860000      -2.26580000
