17
Properties=species:S:1:pos:R:3 gdb_105600=T pbc="F F F"
C       -0.34620000       1.44440000      -0.00430000
N        0.14540000       0.06040000       0.09920000
C        0.73630000      -0.46120000      -1.10820000
C        0.65130000      -2.02250000      -1.28840000
N       -0.09360000      -1.78250000      -2.52440000
C       -0.18040000      -0.42590000      -2.39120000
O       -0.73790000       0.43240000      -3.01750000
C        2.14970000       0.02560000      -1.39780000
O        2.76650000       0.74270000      -0.65290000
H        0.42570000       2.16900000      -0.29800000
H       -1.15680000       1.49280000      -0.73280000
H       -0.74140000       1.73620000       0.97240000
H        0.86210000       0.03980000       0.82060000
H        1.59670000      -2.55540000      -1.43220000
H        0.06890000      -2.47800000      -0.48410000
H       -0.57610000      -2.41070000      -3.15070000
H        2.59580000      -0.35340000      -2.34500000
