22
Properties=species:S:1:pos:R:3 gdb_11131=T pbc="F F F"
C        0.18690000       1.16660000       0.63040000
C        0.14510000      -0.23690000       0.01920000
C        0.45060000      -0.25260000      -1.47980000
C        1.95240000      -0.04700000      -1.85110000
C        2.08490000      -1.56790000      -2.05670000
C        0.53240000      -1.67740000      -2.10700000
O        2.82310000      -1.92420000      -3.19570000
C        2.92200000      -3.31740000      -3.38080000
H        1.17100000       1.62990000       0.50180000
H       -0.55070000       1.82370000       0.15600000
H       -0.03010000       1.14150000       1.70290000
H        0.85370000      -0.88950000       0.54740000
H       -0.84810000      -0.67650000       0.18110000
H       -0.23780000       0.42830000      -1.99020000
H        2.07670000       0.46860000      -2.80670000
H        2.60440000       0.42010000      -1.10830000
H        2.49400000      -2.07640000      -1.16930000
H        0.05490000      -2.49270000      -1.55600000
H        0.18560000      -1.69190000      -3.14420000
H        3.41090000      -3.80810000      -2.52380000
H        1.93700000      -3.78630000      -3.52680000
H        3.52650000      -3.48660000      -4.27530000
