18
Properties=species:S:1:pos:R:3 gdb_37611=T pbc="F F F"
C       -0.02600000       1.56030000       0.06150000
C        1.48620000       1.76990000      -0.01990000
C        2.01000000       0.87540000      -1.19340000
C        0.97230000      -0.31550000      -1.22790000
C        0.02900000       0.04150000      -0.05000000
N        1.09240000      -0.43530000       0.93320000
C        2.09580000       0.71640000       0.94550000
C        2.91450000       0.05550000      -0.20250000
C        1.86650000      -1.08150000      -0.21290000
H       -0.45940000       1.90020000       1.00850000
H       -0.57360000       2.01990000      -0.76890000
H        1.87550000       2.78640000       0.04160000
H        2.35170000       1.31210000      -2.13000000
H        0.61000000      -0.69130000      -2.18520000
H       -0.90610000      -0.51200000       0.04800000
H        2.46670000       0.98730000       1.93510000
H        3.99700000      -0.03650000      -0.25890000
H        2.04660000      -2.15670000      -0.18180000
