19
Properties=species:S:1:pos:R:3 gdb_61457=T pbc="F F F"
C       -0.06100000       1.51970000      -0.06330000
C        0.00840000      -0.01320000       0.02170000
N       -1.30760000      -0.62800000       0.08480000
C       -2.01930000      -0.63320000       1.26260000
N       -3.33700000      -1.05350000       1.12390000
O       -1.54950000      -0.28430000       2.33110000
C        0.76760000      -0.59230000      -1.16030000
C        0.60520000      -1.97150000      -1.62570000
O       -0.00960000      -0.88160000      -2.33090000
H        0.94380000       1.95530000      -0.07440000
H       -0.58040000       1.83580000      -0.97420000
H       -0.59550000       1.91070000       0.80500000
H        0.52990000      -0.28710000       0.94450000
H       -1.80460000      -0.65360000      -0.79370000
H       -3.54490000      -1.71580000       0.39170000
H       -3.76590000      -1.27210000       2.01040000
H        1.71290000      -0.09140000      -1.37180000
H        1.42090000      -2.46080000      -2.15490000
H       -0.08450000      -2.62990000      -1.10330000
