14
Properties=species:S:1:pos:R:3 gdb_47303=T pbc="F F F"
N       -0.12790000       1.44650000      -0.16260000
C        0.04140000       0.22550000       0.08400000
O        1.28460000      -0.33710000       0.24600000
C        1.49840000      -1.35550000       1.19010000
O        1.02100000      -2.62510000       0.79120000
C       -0.31990000      -2.86240000       0.80830000
O       -0.73490000      -3.97540000       0.67870000
C       -1.22720000      -1.64390000       0.99040000
O       -1.01830000      -0.61160000       0.03230000
H        0.77190000       1.92340000      -0.18160000
H        2.57930000      -1.46540000       1.26110000
H        1.08360000      -1.07670000       2.16640000
H       -2.24730000      -1.98850000       0.82900000
H       -1.15390000      -1.25480000       2.01480000
