17
Properties=species:S:1:pos:R:3 gdb_69070=T pbc="F F F"
C       -0.04790000       1.56430000       0.00300000
C        0.08380000       0.06480000      -0.01630000
N       -0.74220000      -0.77450000       0.88570000
C        0.73520000      -0.76010000       1.06970000
C        1.44960000      -1.94690000       0.42080000
C        1.12690000      -1.76590000      -1.04700000
C        0.41100000      -0.66710000      -1.28340000
C        1.27310000      -0.15350000       2.25180000
N        1.69960000       0.33400000       3.21140000
H        0.80260000       2.03590000      -0.49890000
H       -0.96030000       1.87500000      -0.51790000
H       -0.09050000       1.94700000       1.02680000
H       -1.15660000      -0.18130000       1.60540000
H        2.52850000      -1.91410000       0.61320000
H        1.07600000      -2.89830000       0.81530000
H        1.43910000      -2.48550000      -1.79460000
H        0.06490000      -0.32640000      -2.25180000
