17
Properties=species:S:1:pos:R:3 gdb_50993=T pbc="F F F"
O        2.32030000       0.76580000      -1.92370000
C        2.09510000       1.85130000      -1.48210000
O        1.43390000       2.03790000      -0.31780000
C        1.18420000       3.37840000       0.07680000
C       -0.03470000       3.99350000      -0.59820000
C       -1.27750000       3.29110000      -0.29590000
C       -2.29800000       2.71160000      -0.04170000
C        1.46970000       3.65650000       1.51640000
C        2.36950000       4.23490000       0.44300000
H        2.40570000       2.80030000      -1.95750000
H       -0.11210000       5.03990000      -0.27940000
H        0.12190000       4.01830000      -1.68490000
H       -3.19850000       2.19370000       0.17930000
H        0.79530000       4.31820000       2.04770000
H        1.85760000       2.83140000       2.10130000
H        3.35590000       3.79900000       0.33370000
H        2.32030000       5.29780000       0.23290000
