21
Properties=species:S:1:pos:R:3 gdb_59791=T pbc="F F F"
C        0.06480000       1.54090000       0.13700000
C       -0.05430000       0.02140000      -0.00100000
O       -1.41200000      -0.39490000      -0.04130000
C        0.69160000      -0.50910000      -1.23380000
C        0.73770000      -2.03920000      -1.30710000
C        1.22380000      -2.47570000      -2.69040000
O        0.45260000      -1.84910000      -3.71010000
C        0.50410000      -0.45820000      -3.58770000
O       -0.02020000       0.00480000      -2.36740000
H        1.10610000       1.84250000       0.29580000
H       -0.29950000       2.03580000      -0.76790000
H       -0.53000000       1.88290000       0.98740000
H        0.37710000      -0.45990000       0.88540000
H       -1.72980000      -0.16600000      -0.92410000
H        1.71860000      -0.10510000      -1.24520000
H        1.40170000      -2.43400000      -0.52950000
H       -0.26940000      -2.42450000      -1.12470000
H        2.28870000      -2.21690000      -2.82120000
H        1.11670000      -3.55320000      -2.83730000
H        1.54910000      -0.10680000      -3.69240000
H       -0.11710000      -0.03800000      -4.38130000
