19
Properties=species:S:1:pos:R:3 gdb_47743=T pbc="F F F"
O        0.00160000       0.12390000       0.60220000
C        0.02090000       1.21480000       0.09020000
O       -1.14920000       1.73920000      -0.34920000
C       -1.22660000       2.98670000      -1.05870000
C       -0.15060000       3.97980000      -0.65130000
C        1.21350000       3.31850000      -0.84230000
C        1.27250000       2.03910000      -0.02540000
C        2.12660000       2.00210000       1.24260000
C        2.56510000       1.24950000       0.02950000
H       -1.15780000       2.77220000      -2.13370000
H       -2.23170000       3.36580000      -0.85670000
H       -0.24970000       4.88270000      -1.26310000
H       -0.29060000       4.27240000       0.39600000
H        1.35610000       3.09250000      -1.90810000
H        2.02970000       3.98840000      -0.55310000
H        2.64250000       2.91970000       1.50490000
H        1.73720000       1.42860000       2.07470000
H        2.46880000       0.17110000       0.04770000
H        3.39320000       1.64060000      -0.55220000
