21
Properties=species:S:1:pos:R:3 gdb_84596=T pbc="F F F"
C       -0.06030000       1.56870000       0.00240000
C        0.02250000       0.03330000       0.01210000
C        0.69690000      -0.50670000      -1.23390000
C        1.75390000      -1.31080000      -1.12000000
C        2.22080000      -1.67540000       0.27160000
C        2.28300000      -0.36990000       1.12680000
C        0.74960000      -0.52140000       1.26450000
O        0.22150000      -0.02260000       2.46960000
C        0.96570000      -2.05790000       1.11530000
H        0.93620000       2.01740000      -0.05430000
H       -0.63250000       1.91830000      -0.86290000
H       -0.54450000       1.93800000       0.90980000
H       -1.01210000      -0.35170000       0.04260000
H        0.30240000      -0.20050000      -2.19920000
H        2.27300000      -1.70780000      -1.98690000
H        3.08080000      -2.34430000       0.28410000
H        2.75930000      -0.53850000       2.09580000
H        2.68580000       0.53010000       0.65820000
H       -0.73100000      -0.17240000       2.46670000
H        0.19000000      -2.65450000       0.62790000
H        1.23370000      -2.49150000       2.08240000
