23
Properties=species:S:1:pos:R:3 gdb_74304=T pbc="F F F"
C        0.02940000       1.53850000       0.03820000
C        0.05290000       0.03250000      -0.02690000
C        0.10000000      -0.58930000      -1.21750000
C        0.07020000      -2.01200000      -1.58670000
C       -0.01730000      -2.23000000      -3.08500000
C        0.08720000      -3.08380000      -0.77590000
C        0.19120000      -3.16030000       0.72080000
C        0.80820000      -1.95620000       1.43560000
C        0.00890000      -0.65210000       1.31920000
H        0.90840000       1.92560000       0.57120000
H        0.00440000       1.99350000      -0.95520000
H       -0.84710000       1.89260000       0.59780000
H        0.12630000       0.06880000      -2.08540000
H       -0.90740000      -1.74410000      -3.50430000
H        0.84810000      -1.79100000      -3.59770000
H       -0.05820000      -3.29150000      -3.33960000
H        0.01730000      -4.05650000      -1.26050000
H       -0.80480000      -3.36560000       1.14420000
H        0.78630000      -4.04970000       0.96980000
H        0.90890000      -2.20620000       2.49830000
H        1.82320000      -1.78860000       1.05670000
H        0.38250000       0.05390000       2.07150000
H       -1.03980000      -0.83680000       1.59680000
