18
Properties=species:S:1:pos:R:3 gdb_30846=T pbc="F F F"
C       -0.46490000       1.18730000      -0.14400000
N        0.43260000       0.05870000       0.12080000
C        0.79900000      -0.72010000      -0.96430000
C        0.63710000      -2.04730000      -1.21700000
N        0.07760000      -2.99330000      -0.34880000
C        1.23390000      -2.31880000      -2.49840000
C        1.72100000      -1.12150000      -2.93550000
N        2.31910000      -0.72740000      -4.12620000
O        1.49570000      -0.13780000      -2.04750000
H       -0.03450000       1.94760000      -0.81170000
H       -1.38170000       0.81120000      -0.60700000
H       -0.72920000       1.66750000       0.80370000
H        1.21990000       0.35220000       0.69100000
H       -0.41270000      -2.53360000       0.41000000
H       -0.54770000      -3.63560000      -0.81990000
H        1.30090000      -3.27010000      -3.00190000
H        2.77540000      -1.49210000      -4.60440000
H        2.95960000       0.04580000      -3.99740000
