19
Properties=species:S:1:pos:R:3 gdb_87852=T pbc="F F F"
O       -0.07890000       1.36720000      -0.11260000
C       -0.02130000      -0.02620000      -0.02250000
C       -0.45980000      -0.71220000       1.25620000
C       -1.33000000      -0.73690000       0.02390000
C       -2.68740000      -0.02010000      -0.12100000
C       -3.36200000      -1.11070000      -0.98540000
C       -3.01600000      -2.43280000      -0.26220000
C       -1.63400000      -1.99020000      -0.79430000
O       -2.31320000      -1.42330000      -1.96020000
H        0.65310000       1.73060000       0.39630000
H        0.78680000      -0.48950000      -0.59090000
H        0.05350000      -1.61980000       1.56120000
H       -0.77370000      -0.07050000       2.07380000
H       -3.20070000       0.15190000       0.82950000
H       -2.59770000       0.92760000      -0.65460000
H       -4.33570000      -0.90410000      -1.42900000
H       -3.17210000      -2.51240000       0.81690000
H       -3.39960000      -3.30330000      -0.79490000
H       -0.82180000      -2.67800000      -1.03220000
