18
Properties=species:S:1:pos:R:3 gdb_89597=T pbc="F F F"
C       -0.01770000       1.60010000       0.11650000
C        0.00950000       0.08030000       0.05110000
C        0.95760000      -0.61000000      -1.00410000
C        1.66820000      -1.30910000       0.16430000
C        2.36740000      -2.64190000       0.18600000
C        3.56130000      -2.66130000      -0.66370000
N        4.49250000      -2.67320000      -1.34690000
O        2.17490000      -0.27950000       1.01940000
C        0.79430000      -0.65810000       1.15270000
H        0.99340000       1.99190000       0.25780000
H       -0.42420000       2.02490000      -0.80700000
H       -0.64020000       1.94980000       0.94730000
H       -1.00260000      -0.32840000      -0.03270000
H        0.42460000      -1.29370000      -1.66900000
H        1.59800000       0.05010000      -1.59320000
H        2.65680000      -2.88020000       1.21460000
H        1.68680000      -3.42930000      -0.15860000
H        0.46860000      -0.97880000       2.13660000
