15
Properties=species:S:1:pos:R:3 gdb_53862=T pbc="F F F"
N        0.00940000       1.25390000      -0.02350000
C        0.01100000      -0.09020000      -0.03500000
O        0.99730000      -0.80800000      -0.07180000
C       -1.39310000      -0.69680000       0.00340000
N       -2.41050000       0.08040000       0.04190000
N       -1.32810000      -2.05250000      -0.01060000
C       -2.50170000      -2.88850000       0.01910000
C       -2.14280000      -4.30600000      -0.00420000
N       -1.86680000      -5.42670000      -0.02240000
H        0.88030000       1.75560000      -0.04630000
H       -0.87880000       1.73060000       0.00820000
H       -3.30180000      -0.41360000       0.06530000
H       -0.39560000      -2.44360000      -0.04280000
H       -3.10160000      -2.69860000       0.92230000
H       -3.15690000      -2.68360000      -0.84150000
