17
Properties=species:S:1:pos:R:3 gdb_5127=T pbc="F F F"
C        0.03350000       1.43810000       0.00800000
N        0.00690000      -0.00680000       0.03590000
C       -0.03840000      -0.83460000      -1.04060000
N       -0.04570000      -2.10470000      -0.69470000
C       -0.01320000      -2.10080000       0.67680000
N       -0.06330000      -3.30200000       1.40690000
C        0.01000000      -0.81500000       1.16980000
C        0.01650000      -0.29260000       2.56470000
H        0.93610000       1.82750000       0.49070000
H        0.02490000       1.77110000      -1.03170000
H       -0.84010000       1.86210000       0.51460000
H       -0.06130000      -0.45320000      -2.05110000
H       -0.03670000      -4.08270000       0.76160000
H        0.70550000      -3.39600000       2.06000000
H        0.97730000       0.15020000       2.86190000
H       -0.75450000       0.47080000       2.72870000
H       -0.19390000      -1.11570000       3.25300000
