18
Properties=species:S:1:pos:R:3 gdb_87338=T pbc="F F F"
C       -0.14130000       1.51340000       0.33690000
N        0.01970000       0.07260000       0.18590000
C        1.31450000      -0.44060000      -0.21340000
C        0.80000000      -0.69220000       1.17820000
C        1.49710000      -0.00300000       2.35410000
C        0.54030000       0.36400000       3.47470000
O        0.54590000       1.42510000       4.04360000
C        0.25260000      -1.99070000       1.50270000
C       -0.16760000      -3.07760000       1.79940000
H        0.76740000       2.04870000       0.64790000
H       -0.45870000       1.91990000      -0.62820000
H       -0.92970000       1.71730000       1.06700000
H        1.31080000      -1.24370000      -0.94500000
H        2.14640000       0.25920000      -0.29830000
H        2.22850000      -0.71070000       2.76770000
H        2.04030000       0.89370000       2.05140000
H       -0.18010000      -0.43730000       3.74860000
H       -0.55390000      -4.03510000       2.04830000
