18
Properties=species:S:1:pos:R:3 gdb_38607=T pbc="F F F"
C        0.01500000       1.55110000      -0.08440000
C        1.30770000       0.77420000       0.00060000
O        2.03510000       0.75710000       1.20210000
C        1.45930000      -0.00780000       2.22120000
C       -0.06460000       0.13990000       2.53650000
C        0.00390000      -1.23920000       3.22590000
C        0.77430000      -1.37300000       1.89900000
N       -0.39220000      -0.61130000       1.24870000
C       -0.00270000       0.04320000       0.01170000
H       -0.28700000       2.12930000       0.78160000
H       -0.24150000       1.99980000      -1.03790000
H        1.96920000       0.74750000      -0.85860000
H        2.15950000       0.02280000       3.05960000
H       -0.62790000       1.02030000       2.84840000
H        0.57750000      -1.30470000       4.15200000
H       -0.94170000      -1.77900000       3.26050000
H        1.19610000      -2.26660000       1.43670000
H       -0.30640000      -0.52090000      -0.86520000
