23
Properties=species:S:1:pos:R:3 gdb_111301=T pbc="F F F"
C       -0.33630000       1.56690000       0.13600000
C       -0.09380000       0.05830000       0.09090000
C       -1.32960000      -0.69060000       0.59390000
C        0.40770000      -0.53460000      -1.24490000
C        1.76180000      -0.01430000      -1.62790000
C        1.66690000      -1.07780000      -0.56670000
C        1.21890000      -0.50260000       0.78140000
C        2.16450000       0.42500000       1.52260000
O        1.51280000       0.83590000       2.72110000
H        0.48970000       2.13640000      -0.29930000
H       -1.24180000       1.82630000      -0.42440000
H       -0.46160000       1.90240000       1.16980000
H       -2.20960000      -0.44770000      -0.01380000
H       -1.18140000      -1.77490000       0.54740000
H       -1.55070000      -0.42220000       1.63260000
H       -0.23300000      -1.03100000      -1.96570000
H        2.13200000      -0.36390000      -2.58690000
H        2.06810000       1.00100000      -1.39210000
H        2.14090000      -2.04370000      -0.69690000
H        0.94190000      -1.30210000       1.47560000
H        3.09910000      -0.11660000       1.74430000
H        2.43330000       1.29370000       0.90440000
H        2.07720000       1.47350000       3.16770000
