19
Properties=species:S:1:pos:R:3 gdb_40198=T pbc="F F F"
C       -0.08070000       1.49590000       0.05130000
C        1.22100000       0.71290000       0.13460000
C       -0.10210000       0.00910000      -0.03980000
O       -0.64030000      -0.68600000       1.06390000
C       -0.45900000      -2.07460000       0.78930000
C       -0.68390000      -2.22390000      -0.71360000
O       -2.07520000      -2.17860000      -1.08490000
C       -1.93420000      -0.85960000      -1.65440000
C       -0.43780000      -0.79580000      -1.27540000
H       -0.45760000       1.93400000       0.96850000
H       -0.28460000       2.07240000      -0.84480000
H        1.90850000       0.75990000      -0.70370000
H        1.68870000       0.63920000       1.10990000
H        0.56140000      -2.39730000       1.05120000
H       -1.18300000      -2.63800000       1.38240000
H       -0.16680000      -3.08210000      -1.15460000
H       -2.14340000      -0.86010000      -2.73110000
H       -2.57710000      -0.12390000      -1.15760000
H        0.26700000      -0.66750000      -2.09580000
