19
Properties=species:S:1:pos:R:3 gdb_73010=T pbc="F F F"
C        0.00170000       1.59280000      -0.00200000
C        0.00290000       0.09280000       0.02480000
C       -0.79710000      -0.81710000      -0.91030000
O       -1.03580000      -1.78300000       0.15040000
C       -0.36770000      -0.93210000       1.08600000
C        1.05850000      -0.75990000       0.69050000
C        2.04210000      -1.79600000       0.15970000
O        3.05620000      -1.32000000       1.07790000
C        2.19820000      -0.27680000       1.58420000
H        0.58770000       1.97740000      -0.84550000
H       -1.01630000       1.98670000      -0.09470000
H        0.43620000       2.00820000       0.91260000
H       -1.74270000      -0.37120000      -1.24070000
H       -0.27690000      -1.25780000      -1.76940000
H       -0.76600000      -0.86010000       2.09320000
H        1.77410000      -2.84330000       0.33990000
H        2.35280000      -1.67490000      -0.88680000
H        2.59440000       0.72300000       1.35890000
H        2.03850000      -0.35980000       2.66750000
