20
Properties=species:S:1:pos:R:3 gdb_58826=T pbc="F F F"
C        0.00650000       1.50480000       0.07910000
C       -0.03460000      -0.01890000      -0.03140000
O        0.79860000      -0.65520000       0.93190000
C       -1.45260000      -0.53470000       0.04490000
C       -2.13480000      -1.01460000       1.29420000
C       -2.01400000      -1.93320000       0.10100000
C       -2.93940000      -1.52350000      -1.05760000
C       -3.76750000      -0.32680000      -0.81200000
N       -2.33760000      -0.14290000      -1.13610000
H        1.03080000       1.86920000      -0.03710000
H       -0.62240000       1.95620000      -0.69300000
H       -0.37310000       1.83090000       1.05600000
H        0.37480000      -0.31360000      -1.00530000
H        0.67040000      -0.20010000       1.77100000
H       -1.42970000      -1.26950000       2.07890000
H       -3.08070000      -0.63870000       1.66810000
H       -1.48810000      -2.87740000       0.14350000
H       -3.04120000      -2.12530000      -1.95530000
H       -4.40380000       0.00090000      -1.62980000
H       -4.15590000      -0.08040000       0.16910000
