17
Properties=species:S:1:pos:R:3 gdb_20899=T pbc="F F F"
C       -0.19650000       1.52390000       0.16240000
C        0.13640000       0.04320000      -0.01730000
N        0.76730000      -0.53140000       1.15890000
C        0.29750000      -1.44480000       2.03020000
N        1.18000000      -1.68010000       2.98200000
C        2.21640000      -0.85610000       2.64320000
C        3.47940000      -0.76570000       3.43190000
N        2.00860000      -0.14060000       1.54460000
H        0.71120000       2.08950000       0.38380000
H       -0.64270000       1.92120000      -0.75400000
H       -0.90420000       1.66880000       0.98390000
H       -0.76660000      -0.54320000      -0.21150000
H        0.81380000      -0.09720000      -0.86520000
H       -0.67500000      -1.90410000       1.92750000
H        3.97650000      -1.73970000       3.48010000
H        4.15820000      -0.04350000       2.97520000
H        3.27150000      -0.45720000       4.46130000
