16
Properties=species:S:1:pos:R:3 gdb_6699=T pbc="F F F"
C       -0.07140000       1.55160000       0.03510000
C       -0.02390000       0.02460000      -0.01580000
O        0.64960000      -0.44130000      -1.17600000
C        0.75060000      -0.55290000       1.18150000
C        0.71690000      -2.00440000       1.25760000
C        0.68450000      -3.20880000       1.34450000
C        0.62810000      -4.64480000       1.39900000
O        1.10950000      -5.32200000       2.27920000
H        0.94150000       1.96650000       0.03320000
H       -0.60220000       1.94710000      -0.83760000
H       -0.59540000       1.90450000       0.92930000
H       -1.05030000      -0.37340000       0.01710000
H        0.15860000      -0.14490000      -1.94860000
H        1.79390000      -0.21890000       1.10940000
H        0.34860000      -0.13350000       2.11180000
H        0.09170000      -5.10750000       0.54510000
