20
Properties=species:S:1:pos:R:3 gdb_120155=T pbc="F F F"
O        0.21750000       1.25950000      -0.46300000
C        0.08930000      -0.07020000      -0.00410000
C       -1.36540000      -0.41340000       0.31470000
N       -2.15720000      -0.14150000      -0.88700000
C       -2.54890000      -1.13380000      -1.86090000
C       -2.95530000      -2.47040000      -1.21770000
C       -4.05410000      -1.69190000      -0.40990000
O       -4.03830000      -1.70790000       0.99920000
C       -3.57140000      -0.37670000      -1.03260000
H       -0.53540000       1.38750000      -1.05610000
H        0.47840000      -0.78940000      -0.74650000
H        0.70240000      -0.17020000       0.89840000
H       -1.45020000      -1.44150000       0.68470000
H       -1.73690000       0.25040000       1.10150000
H       -2.27340000      -0.98760000      -2.89910000
H       -3.38350000      -3.17750000      -1.93170000
H       -2.18770000      -2.98010000      -0.62920000
H       -5.05110000      -1.94240000      -0.79750000
H       -4.37750000      -2.55780000       1.29790000
H       -4.21030000       0.45980000      -1.29510000
