17
Properties=species:S:1:pos:R:3 gdb_23555=T pbc="F F F"
O        0.94320000      -0.94770000       0.67530000
C        0.18040000      -0.05000000      -0.11020000
C       -1.29440000      -0.41310000      -0.06180000
N       -1.97100000      -0.32170000       1.30350000
C       -2.05330000       1.10580000       1.64760000
C       -3.03960000       0.57830000       0.67220000
C       -2.39540000       0.44740000      -0.65760000
N       -2.79960000       0.76940000      -1.81300000
O       -1.87130000       0.36460000      -2.79040000
H        0.53970000      -0.97760000       1.55030000
H        0.34570000       0.99440000       0.19510000
H        0.53310000      -0.14380000      -1.14130000
H       -1.40610000      -1.44610000      -0.40900000
H       -2.40820000       1.27070000       2.66040000
H       -1.28510000       1.79960000       1.31840000
H       -4.09600000       0.47720000       0.89080000
H       -2.29860000       0.64360000      -3.60740000
