15
Properties=species:S:1:pos:R:3 gdb_33696=T pbc="F F F"
N        0.16630000      -1.13220000      -0.01320000
C        0.06910000       0.02190000       0.01190000
C       -0.06150000       1.43220000       0.02520000
C        0.10170000       2.33500000       1.24440000
C       -0.98600000       3.39040000       1.17810000
N       -1.12530000       3.59080000      -0.27040000
C        0.17730000       3.36870000      -0.92070000
C        1.01960000       2.51690000       0.06940000
C       -0.88030000       2.32450000      -0.96500000
H        0.46940000       1.90810000       2.16840000
H       -1.93690000       3.05390000       1.60030000
H       -0.69100000       4.32940000       1.65590000
H        0.54330000       4.06250000      -1.66480000
H        2.09050000       2.37950000       0.07780000
H       -1.54200000       1.97400000      -1.74530000
