19
Properties=species:S:1:pos:R:3 gdb_103664=T pbc="F F F"
C       -0.52120000       1.66570000      -0.11790000
C        0.02320000       0.25100000      -0.18340000
C       -1.04280000      -0.80560000       0.12030000
O       -1.46990000      -0.70390000       1.46310000
C        0.96650000      -0.09870000      -1.35640000
C        2.02550000      -0.38080000      -0.25750000
O        1.11420000       0.06350000       0.78260000
C        2.45680000      -1.76090000      -0.09970000
C        2.81500000      -2.90220000       0.02150000
H        0.28610000       2.39790000      -0.20490000
H       -1.23580000       1.83510000      -0.93100000
H       -1.04010000       1.81990000       0.83170000
H       -1.92420000      -0.65680000      -0.51380000
H       -0.63250000      -1.80430000      -0.09530000
H       -0.66220000      -0.74540000       1.99180000
H        0.67930000      -0.95890000      -1.96200000
H        1.21770000       0.74200000      -2.00420000
H        2.90240000       0.27620000      -0.29720000
H        3.13360000      -3.90920000       0.13390000
