11
Properties=species:S:1:pos:R:3 gdb_4413=T pbc="F F F"
N        0.02770000       1.31790000       0.00750000
C       -0.04070000      -0.01800000       0.00100000
N       -1.20470000      -0.63170000       0.00410000
C       -1.10080000      -1.97780000      -0.00300000
N       -0.02230000      -2.72010000      -0.01300000
C        1.18470000      -2.09660000      -0.01640000
O        2.28180000      -2.55220000      -0.02490000
O        1.13570000      -0.62020000      -0.00850000
H        0.91960000       1.78110000       0.00510000
H       -0.82880000       1.84410000       0.01480000
H       -2.05010000      -2.51140000      -0.00140000
