17
Properties=species:S:1:pos:R:3 gdb_30594=T pbc="F F F"
C        0.01270000       1.53860000       0.01090000
C       -0.03680000       0.01320000       0.00380000
C       -1.44850000      -0.53660000       0.01260000
O       -2.44480000       0.16710000       0.02390000
C       -1.60100000      -2.00060000       0.00700000
N       -0.65910000      -2.93150000      -0.00490000
C       -1.32520000      -4.12210000      -0.00510000
C       -2.69020000      -3.91340000       0.00670000
N       -2.84690000      -2.56010000       0.01430000
H        1.04860000       1.88820000       0.00400000
H       -0.49780000       1.95210000      -0.86280000
H       -0.48310000       1.94340000       0.89700000
H        0.47810000      -0.40780000      -0.86900000
H        0.49230000      -0.41640000       0.86380000
H       -0.80130000      -5.06600000      -0.01360000
H       -3.52740000      -4.59180000       0.01020000
H       -3.69680000      -2.01800000       0.02370000
