21
Properties=species:S:1:pos:R:3 gdb_94439=T pbc="F F F"
C       -0.35920000       1.42220000      -0.06440000
C        0.12350000      -0.01690000      -0.16680000
C        1.51750000      -0.26270000      -0.78200000
O        1.97010000      -0.93550000       0.41240000
C        0.72980000      -0.69510000       1.08810000
C        0.77610000      -0.04300000       2.48190000
O       -0.02230000      -1.10170000       3.04520000
C        0.07580000      -1.88610000       1.83020000
C       -1.26150000      -2.43630000       1.38380000
H        0.40530000       2.07200000       0.37480000
H       -0.60150000       1.81870000      -1.05610000
H       -1.26100000       1.49900000       0.55220000
H       -0.64900000      -0.63890000      -0.62710000
H        1.56020000      -0.91580000      -1.66110000
H        2.10020000       0.64580000      -0.98320000
H        1.79420000      -0.01620000       2.89290000
H        0.30490000       0.93870000       2.60620000
H        0.81090000      -2.69610000       1.94850000
H       -1.98560000      -1.63200000       1.22150000
H       -1.15420000      -3.00940000       0.45650000
H       -1.66450000      -3.10560000       2.15010000
