23
Properties=species:S:1:pos:R:3 gdb_64472=T pbc="F F F"
C        0.15290000       1.61220000       0.01500000
C       -0.04130000       0.08880000      -0.00690000
O       -1.44910000      -0.20260000      -0.10430000
C        0.59140000      -0.49280000      -1.28850000
C        0.22100000      -1.94320000      -1.62530000
C        0.71220000      -3.01970000      -0.64830000
C        0.08150000      -2.95800000       0.75570000
C        0.56050000      -1.80150000       1.60060000
C        0.53850000      -0.51040000       1.26780000
H        1.21620000       1.87580000       0.00760000
H       -0.32820000       2.06620000      -0.85500000
H       -0.29160000       2.04530000       0.91870000
H       -1.84010000      -0.01050000       0.75440000
H        0.27290000       0.13920000      -2.12660000
H        1.67980000      -0.38490000      -1.20870000
H       -0.86840000      -2.01050000      -1.71550000
H        0.62930000      -2.16800000      -2.61850000
H        0.48650000      -4.00210000      -1.08120000
H        1.80490000      -2.96730000      -0.55310000
H       -1.01000000      -2.90650000       0.64920000
H        0.29790000      -3.89300000       1.28280000
H        0.97280000      -2.05910000       2.57450000
H        0.93990000       0.20790000       1.98050000
