19
Properties=species:S:1:pos:R:3 gdb_61308=T pbc="F F F"
C       -0.12010000       1.48350000       0.05710000
N       -0.02560000       0.02460000       0.01670000
C        0.71860000      -0.50240000       1.15210000
C        2.12620000      -0.08430000       1.13070000
N        3.23410000       0.24210000       1.13180000
C       -1.32700000      -0.62580000      -0.11030000
C       -1.95520000      -0.37730000      -1.46050000
C       -3.40800000      -0.45630000      -1.65210000
O       -2.74530000       0.80690000      -1.61030000
H        0.88440000       1.91390000       0.06950000
H       -0.64230000       1.84490000      -0.82900000
H       -0.66760000       1.84530000       0.94690000
H        0.29420000      -0.20390000       2.13110000
H        0.69590000      -1.59740000       1.11880000
H       -1.17680000      -1.70740000      -0.00100000
H       -2.03910000      -0.31010000       0.67600000
H       -1.30480000      -0.58920000      -2.30940000
H       -3.80840000      -0.74640000      -2.62200000
H       -4.05200000      -0.67320000      -0.80050000
