23
Properties=species:S:1:pos:R:3 gdb_102614=T pbc="F F F"
C       -0.10960000       1.56370000       0.03360000
C       -0.06790000       0.03480000      -0.00100000
C       -1.45540000      -0.62850000       0.03380000
C       -1.35770000      -2.15270000      -0.16040000
C       -2.71000000      -2.86800000      -0.21770000
N       -2.15980000      -0.28200000       1.26610000
C       -3.46440000       0.15640000       1.26100000
N       -4.02550000       0.25930000       2.53380000
O       -4.09330000       0.41260000       0.25040000
H        0.89990000       1.98600000       0.01650000
H       -0.65510000       1.96260000      -0.82840000
H       -0.61210000       1.92230000       0.93650000
H        0.44790000      -0.30090000      -0.90870000
H        0.52970000      -0.34190000       0.84180000
H       -2.07530000      -0.20990000      -0.76530000
H       -0.80180000      -2.34000000      -1.08730000
H       -0.74450000      -2.57780000       0.64820000
H       -3.33900000      -2.46020000      -1.01480000
H       -2.57660000      -3.93860000      -0.40160000
H       -3.26090000      -2.75740000       0.72100000
H       -1.81020000      -0.69300000       2.11870000
H       -3.40830000       0.51360000       3.29140000
H       -4.88400000       0.78970000       2.52150000
