17
Properties=species:S:1:pos:R:3 gdb_10324=T pbc="F F F"
C       -0.02990000       1.50980000      -1.11980000
N        0.13780000       0.24710000      -0.41500000
C        1.18850000      -0.60000000      -0.91120000
C        1.92630000      -1.29250000       0.23460000
O        1.73450000      -1.02610000       1.39270000
C        0.75160000      -1.70850000      -1.90130000
C       -0.72730000      -1.97630000      -2.03960000
O        1.60310000      -2.33340000      -2.48930000
H        0.89110000       2.11560000      -1.17930000
H       -0.37170000       1.33020000      -2.14570000
H       -0.79820000       2.10420000      -0.61810000
H        0.28480000       0.39050000       0.57950000
H        1.98920000      -0.05500000      -1.44860000
H        2.65690000      -2.05640000      -0.09270000
H       -1.23400000      -1.10070000      -2.45850000
H       -0.88010000      -2.84090000      -2.68640000
H       -1.17570000      -2.13850000      -1.05480000
