19
Properties=species:S:1:pos:R:3 gdb_59040=T pbc="F F F"
C       -0.00530000       1.41460000      -0.02990000
N        0.12720000      -0.03270000      -0.00110000
C       -0.09580000      -0.66550000       1.29080000
C        0.01200000      -0.70170000      -1.18290000
N       -0.16220000      -0.10600000      -2.31550000
C       -0.13440000      -1.06800000      -3.41810000
C       -0.02390000      -2.47570000      -2.81260000
C        0.16220000      -2.20990000      -1.32680000
O        0.39190000      -3.02830000      -0.46970000
H        0.47310000       1.83070000       0.86140000
H        0.47400000       1.80720000      -0.92680000
H       -1.05810000       1.73330000      -0.04300000
H       -1.12480000      -0.50320000       1.64640000
H        0.09440000      -1.73350000       1.22290000
H        0.58560000      -0.22800000       2.02860000
H       -1.03710000      -0.94140000      -4.02650000
H        0.71270000      -0.83890000      -4.07690000
H       -0.93180000      -3.07280000      -2.94970000
H        0.80990000      -3.07220000      -3.19230000
