23
Properties=species:S:1:pos:R:3 gdb_100184=T pbc="F F F"
C       -0.17590000       1.60390000       0.15120000
C       -0.10070000       0.08840000      -0.07100000
C        0.70550000      -0.41070000      -1.31250000
C       -0.01280000      -0.00420000      -2.61270000
C        2.07170000       0.25850000      -1.28510000
O        3.07940000      -0.21330000      -0.80760000
C        0.84710000      -1.96280000      -1.20040000
C        1.54290000      -2.62630000      -2.39580000
O        1.47330000      -2.33910000       0.01600000
H        0.80700000       2.04090000       0.35590000
H       -0.60680000       2.13500000      -0.70360000
H       -0.80900000       1.81850000       1.01740000
H        0.33220000      -0.39300000       0.80920000
H       -1.11710000      -0.31240000      -0.17700000
H       -0.19810000       1.07350000      -2.64610000
H        0.56530000      -0.26440000      -3.50360000
H       -0.98150000      -0.50960000      -2.68130000
H        2.10750000       1.27180000      -1.74440000
H       -0.17360000      -2.36250000      -1.13190000
H        2.54630000      -2.21790000      -2.55120000
H        1.64280000      -3.69510000      -2.19000000
H        0.97380000      -2.51080000      -3.32260000
H        2.34600000      -1.92060000       0.00190000
