17
Properties=species:S:1:pos:R:3 gdb_66796=T pbc="F F F"
C       -0.08080000       1.52420000       0.02530000
C        0.05500000       0.03430000       0.01380000
C        0.69130000      -0.87240000      -1.07590000
C       -0.60100000      -1.72020000      -1.07440000
C        0.04850000      -2.63080000      -0.00560000
C       -0.58990000      -1.73590000       1.08300000
C        0.70240000      -0.88810000       1.08360000
N        1.32490000      -1.77430000      -0.00590000
N       -1.22410000      -0.83320000       0.01410000
H        0.90240000       2.00800000       0.02210000
H       -0.63750000       1.86700000      -0.85370000
H       -0.62550000       1.85450000       0.91650000
H        1.29310000      -0.56460000      -1.93220000
H       -1.21070000      -2.01730000      -1.92790000
H        0.14110000      -3.71700000      -0.01400000
H       -1.19080000      -2.04550000       1.93830000
H        1.31300000      -0.59270000       1.93790000
