20
Properties=species:S:1:pos:R:3 gdb_113867=T pbc="F F F"
O       -0.14670000       1.40880000      -0.75450000
C        0.02070000       0.31230000       0.12790000
C       -1.28070000      -0.43640000       0.30430000
N       -1.73730000      -1.16860000      -0.89470000
C       -1.42250000      -1.91990000       0.33480000
C       -0.28500000      -2.90220000       0.27760000
C        0.23310000      -3.45270000       1.62820000
O       -0.10410000      -4.80540000       1.26420000
C       -0.65740000      -4.38020000       0.00260000
H       -0.50150000       1.03650000      -1.57070000
H        0.80950000      -0.36510000      -0.22740000
H        0.34880000       0.73210000       1.08480000
H       -2.03790000       0.12590000       0.84880000
H       -2.74240000      -1.07680000      -1.01110000
H       -2.27350000      -2.28360000       0.91290000
H        0.50290000      -2.53540000      -0.38000000
H        1.30600000      -3.33080000       1.81950000
H       -0.32390000      -3.11270000       2.51220000
H       -1.73500000      -4.58270000      -0.06410000
H       -0.15470000      -4.85330000      -0.84890000
