18
Properties=species:S:1:pos:R:3 gdb_73320=T pbc="F F F"
C        0.00230000       1.59360000      -0.06790000
C        0.04450000       0.08710000       0.02680000
C        0.53030000      -0.71660000      -1.23820000
O        0.45960000      -2.12340000      -0.83730000
C       -0.01100000      -1.91820000       0.46970000
C       -0.45710000      -2.48980000       1.81780000
N       -0.60720000      -0.96140000       2.02640000
C        0.66530000      -0.73470000       1.17370000
C       -1.08090000      -0.82220000       0.55870000
H        0.99530000       2.00590000      -0.28060000
H       -0.67110000       1.92240000      -0.86760000
H       -0.35020000       2.03040000       0.87080000
H       -0.12010000      -0.55840000      -2.10570000
H        1.56290000      -0.47410000      -1.51300000
H       -1.40630000      -3.03040000       1.86510000
H        0.29730000      -2.94510000       2.46510000
H        1.65500000      -0.69520000       1.62890000
H       -2.13630000      -0.88520000       0.29360000
