20
Properties=species:S:1:pos:R:3 gdb_105939=T pbc="F F F"
C        0.13700000       1.49110000       0.19980000
C       -0.09420000       0.00010000      -0.07830000
C        0.66080000      -0.48660000      -1.26930000
C        2.10450000      -0.78330000      -1.56360000
C        0.99880000      -1.83370000      -1.83620000
C        0.58620000      -1.38940000      -3.24450000
C        1.84850000      -1.01520000      -4.04040000
C        2.03470000      -0.01350000      -2.88740000
N        0.50230000       0.05390000      -2.69460000
H        1.18930000       1.69020000       0.42730000
H       -0.13640000       2.08830000      -0.67510000
H       -0.46440000       1.83140000       1.04800000
H        0.19960000      -0.60150000       0.79180000
H       -1.16520000      -0.18490000      -0.23540000
H        2.93250000      -0.96850000      -0.89100000
H        0.99150000      -2.80970000      -1.36780000
H       -0.30100000      -1.81940000      -3.70940000
H        2.61370000      -1.77620000      -4.21230000
H        1.59390000      -0.50480000      -4.97330000
H        2.58410000       0.92140000      -2.99920000
