16
Properties=species:S:1:pos:R:3 gdb_45769=T pbc="F F F"
O       -0.13420000       0.00680000      -0.48730000
C       -0.12170000       1.18660000      -0.21350000
C       -1.29380000       2.17480000      -0.13980000
C       -0.63640000       3.47630000       0.23690000
C        0.67700000       3.26610000       0.36040000
N        1.01110000       1.92540000       0.09870000
C        2.34150000       1.34540000       0.12410000
C        3.04030000       1.55950000       1.38930000
C        3.62240000       1.75920000       2.42080000
H       -1.80960000       2.19950000      -1.10670000
H       -2.02510000       1.81910000       0.59520000
H       -1.14650000       4.41450000       0.38970000
H        1.46440000       3.95410000       0.63260000
H        2.19630000       0.27640000      -0.06730000
H        2.94820000       1.74310000      -0.70140000
H        4.13530000       1.91890000       3.33710000
