20
Properties=species:S:1:pos:R:3 gdb_111460=T pbc="F F F"
C       -0.02770000       1.44450000      -0.17470000
O        0.00910000       0.06240000       0.09680000
C       -1.25790000      -0.58030000       0.08680000
C       -1.20550000      -1.94040000      -0.60100000
N       -0.31150000      -2.92150000       0.05350000
C       -1.77820000      -2.94220000       0.32820000
C       -2.10560000      -2.20580000       1.58620000
C       -1.77980000      -0.91380000       1.48950000
C       -1.82700000       0.12560000       2.56140000
H        1.00720000       1.79700000      -0.17720000
H       -0.47390000       1.65860000      -1.15880000
H       -0.58670000       2.01180000       0.58440000
H       -1.98310000       0.06250000      -0.44050000
H       -1.34290000      -1.99600000      -1.67500000
H       -0.09760000      -3.64350000      -0.63390000
H       -2.36900000      -3.78530000      -0.01260000
H       -2.49050000      -2.68890000       2.47750000
H       -2.20000000      -0.28540000       3.50330000
H       -0.82580000       0.53520000       2.73990000
H       -2.47020000       0.96910000       2.27780000
