20
Properties=species:S:1:pos:R:3 gdb_97256=T pbc="F F F"
C       -0.22350000       1.47680000       0.02810000
N       -0.14970000       0.02610000       0.04230000
C        0.62390000      -0.56020000       0.85420000
C        0.66880000      -2.07250000       0.87890000
C        2.06260000      -2.70630000       0.78740000
O        2.77110000      -2.78420000       2.01390000
C        2.63180000      -1.68960000       2.89760000
C        2.62480000      -0.31240000       2.24270000
O        1.34970000       0.14190000       1.78170000
H        0.66630000       1.97430000       0.42990000
H       -0.39310000       1.80980000      -1.00060000
H       -1.08810000       1.80730000       0.61800000
H        0.16990000      -2.44480000       1.78280000
H        0.07220000      -2.39760000       0.02480000
H        1.96360000      -3.74160000       0.44800000
H        2.66040000      -2.17570000       0.02950000
H        1.72440000      -1.78290000       3.51510000
H        3.49290000      -1.74820000       3.57220000
H        2.91440000       0.43180000       2.98970000
H        3.36040000      -0.27430000       1.42840000
