16
Properties=species:S:1:pos:R:3 gdb_40333=T pbc="F F F"
C        0.74800000       1.05360000      -0.09090000
O        0.04810000       0.04540000      -0.82370000
C       -0.54500000       0.53650000       0.38260000
C       -0.63010000      -0.45000000       1.47620000
C       -1.30300000      -1.79790000       1.58630000
C       -1.55240000      -1.47770000       3.08030000
C       -0.09350000      -1.33300000       3.31890000
C        0.20800000      -1.64900000       1.83230000
N       -0.91030000      -0.11980000       2.94880000
H        1.66210000       0.72380000       0.39860000
H        0.79020000       2.03070000      -0.56880000
H       -1.43100000       1.15580000       0.23510000
H       -1.81480000      -2.39310000       0.84430000
H       -2.38050000      -1.65940000       3.75460000
H        0.49860000      -1.37250000       4.22540000
H        1.03000000      -2.11490000       1.30890000
