16
Properties=species:S:1:pos:R:3 gdb_61337=T pbc="F F F"
C       -0.28860000       1.37480000       0.06030000
N        0.04270000      -0.03530000      -0.05650000
C       -0.00940000      -0.86060000       1.13510000
C       -1.35590000      -1.03650000       1.68120000
C       -2.46090000      -1.18280000       2.14550000
C       -3.79340000      -1.34750000       2.67280000
O       -4.05930000      -1.99470000       3.65840000
C        0.35660000      -0.57660000      -1.27300000
O        0.40910000       0.03200000      -2.31750000
H        0.40160000       1.87840000       0.74760000
H       -0.20180000       1.81570000      -0.93240000
H       -1.31050000       1.50540000       0.43260000
H        0.41080000      -1.84450000       0.89430000
H        0.63390000      -0.43270000       1.91780000
H       -4.57790000      -0.82260000       2.09160000
H        0.57130000      -1.66090000      -1.19430000
