19
Properties=species:S:1:pos:R:3 gdb_3976=T pbc="F F F"
C       -0.42850000       1.56550000      -0.12820000
C        0.02210000       0.11330000       0.01030000
C       -1.14610000      -0.85410000      -0.16410000
C        1.27460000      -0.24500000      -0.87810000
C        2.04790000      -0.49350000       0.39750000
C        0.88090000      -0.16060000       1.29970000
N        3.25050000      -0.85300000       0.56350000
O        3.55360000      -0.96340000       1.93590000
H        0.41160000       2.25700000      -0.00220000
H       -0.86730000       1.74900000      -1.11570000
H       -1.18390000       1.81640000       0.62530000
H       -1.60610000      -0.74170000      -1.15260000
H       -0.81990000      -1.89490000      -0.06390000
H       -1.92220000      -0.67310000       0.58840000
H        1.14890000      -1.12370000      -1.51850000
H        1.65350000       0.57740000      -1.49300000
H        1.04460000       0.70510000       1.94950000
H        0.54090000      -0.99280000       1.92440000
H        4.47680000      -1.23720000       1.91670000
