16
Properties=species:S:1:pos:R:3 gdb_46082=T pbc="F F F"
N       -0.01880000       1.27430000       0.37030000
C       -0.00070000       0.05480000       0.01500000
O        1.17470000      -0.61500000      -0.19600000
C        1.11790000      -1.80570000      -0.98280000
C        0.05970000      -2.79070000      -0.45260000
C       -1.24550000      -2.03740000      -0.29160000
C       -1.24380000      -0.71630000      -0.10800000
C       -0.05910000      -3.94040000      -1.34340000
C       -0.14650000      -4.87390000      -2.09460000
H        0.93600000       1.63610000       0.42030000
H        0.88440000      -1.55520000      -2.02480000
H        2.11820000      -2.23910000      -0.94060000
H        0.38410000      -3.14750000       0.53720000
H       -2.16850000      -2.60610000      -0.32550000
H       -2.15450000      -0.14390000       0.01770000
H       -0.22700000      -5.70590000      -2.75000000
