16
Properties=species:S:1:pos:R:3 gdb_75954=T pbc="F F F"
C       -0.91840000       0.84380000      -0.01080000
C        0.18580000      -0.20770000       0.00980000
C        1.02060000      -0.24890000      -1.25800000
N        0.71050000       0.38070000      -2.30400000
O        2.15940000      -1.01110000      -1.16630000
C        2.33860000      -1.69710000       0.05180000
O        2.23020000      -0.83850000       1.17030000
C        1.10530000      -0.06430000       1.22420000
O        0.91060000       0.64970000       2.16170000
H       -0.49120000       1.84310000      -0.11300000
H       -1.58380000       0.67120000      -0.85730000
H       -1.48600000       0.80480000       0.92040000
H       -0.26780000      -1.20850000       0.11090000
H        1.39740000       0.21800000      -3.04230000
H        1.61890000      -2.52260000       0.13900000
H        3.35700000      -2.08340000       0.05020000
