12
Properties=species:S:1:pos:R:3 gdb_130832=T pbc="F F F"
O       -0.09740000       0.04020000       0.00330000
C       -0.04520000       1.23710000       0.00880000
C        1.34000000       1.92750000      -0.00210000
O        2.37780000       1.32790000      -0.01590000
N        1.31370000       3.34300000       0.00560000
C        2.38180000       4.19500000      -0.00110000
C        1.81770000       5.43590000       0.01140000
N        0.44730000       5.30290000       0.02490000
N        0.13790000       4.05580000       0.02160000
H       -0.92710000       1.89660000       0.02140000
H        3.39340000       3.82950000      -0.01360000
H        2.28620000       6.40600000       0.01160000
