17
Properties=species:S:1:pos:R:3 gdb_29912=T pbc="F F F"
C        0.00620000       1.45090000       0.01840000
N        0.00430000       0.00080000       0.01220000
C       -0.02970000      -0.78630000      -1.12140000
C       -0.02100000      -2.09980000      -0.74150000
C        0.02020000      -2.11290000       0.68730000
C        0.04270000      -3.24720000       1.53250000
N        0.06140000      -4.17080000       2.23350000
C        0.03510000      -0.79270000       1.12640000
C        0.07600000      -0.24990000       2.51390000
H        0.90930000       1.84180000       0.49750000
H       -0.02250000       1.80770000      -1.01170000
H       -0.86760000       1.84380000       0.54760000
H       -0.05710000      -0.33290000      -2.09910000
H       -0.04100000      -2.96180000      -1.38800000
H        0.96600000       0.36650000       2.69010000
H       -0.80010000       0.36960000       2.74100000
H        0.09510000      -1.07680000       3.22650000
