21
Properties=species:S:1:pos:R:3 gdb_83379=T pbc="F F F"
C       -0.00150000       1.66690000       0.04550000
C        0.04200000       0.14780000       0.05710000
C        1.11860000      -0.60000000      -0.74080000
O        2.35270000      -0.03290000      -0.18850000
C        2.11540000      -0.01470000       1.25720000
C        0.74560000      -0.65780000       1.23590000
C       -0.17140000      -1.54770000       2.08690000
C       -0.34270000      -2.45770000       0.81340000
C        0.94740000      -1.80910000       0.19700000
H        1.00160000       2.09850000       0.02850000
H       -0.52940000       2.02580000      -0.84480000
H       -0.53410000       2.05630000       0.92060000
H       -0.95290000      -0.25870000      -0.12570000
H        1.22140000      -0.60950000      -1.82720000
H        2.87460000      -0.61790000       1.76650000
H        2.16880000       1.01710000       1.62170000
H        0.36770000      -2.07310000       2.88130000
H       -1.06680000      -1.08790000       2.51470000
H       -0.24480000      -3.53010000       0.99150000
H       -1.27170000      -2.29110000       0.26630000
H        1.83110000      -2.44440000       0.28560000
