18
Properties=species:S:1:pos:R:3 gdb_40118=T pbc="F F F"
C        0.13750000       1.54110000      -0.03680000
C        1.34060000       0.64090000       0.19760000
C       -0.01310000       0.05380000      -0.04230000
O       -0.66300000      -0.51570000       1.10670000
C       -1.36090000      -1.57340000       0.62650000
N       -1.31940000      -1.84050000      -0.61260000
C       -0.45310000      -0.83540000      -1.19880000
C       -0.77370000      -0.35030000      -2.58780000
C        0.42080000      -1.24410000      -2.35500000
H       -0.26620000       2.07320000       0.81710000
H        0.06000000       2.07010000      -0.98060000
H        2.08580000       0.55440000      -0.58590000
H        1.73240000       0.57790000       1.20650000
H       -1.91840000      -2.12340000       1.37520000
H       -1.65050000      -0.77830000      -3.05930000
H       -0.59560000       0.69460000      -2.81900000
H        1.41100000      -0.80700000      -2.42790000
H        0.35550000      -2.27940000      -2.66830000
