16
Properties=species:S:1:pos:R:3 gdb_36759=T pbc="F F F"
C       -0.06710000      -1.22970000      -0.00430000
C       -0.06090000      -0.02810000       0.00250000
C       -0.01730000       1.42810000       0.01050000
C        1.42380000       1.97400000      -0.00090000
C        1.44300000       3.51740000       0.00780000
C        2.78830000       4.06490000      -0.00250000
C        3.91560000       4.49990000      -0.01160000
C        5.18710000       4.99620000      -0.02190000
N        6.26930000       5.41870000      -0.03070000
H       -0.08530000      -2.29140000      -0.01030000
H       -0.56380000       1.81660000      -0.85930000
H       -0.54610000       1.80640000       0.89550000
H        1.96680000       1.59590000       0.87010000
H        1.94910000       1.60600000      -0.88690000
H        0.89500000       3.90230000      -0.86270000
H        0.91260000       3.89210000       0.89360000
