22
Properties=species:S:1:pos:R:3 gdb_114533=T pbc="F F F"
C        0.09640000       1.50390000       0.17290000
C       -0.00170000      -0.02260000       0.11600000
C       -1.42980000      -0.53390000      -0.04050000
C       -1.50470000      -2.07940000      -0.20520000
N       -2.73970000      -2.66780000       0.35090000
C       -3.84710000      -1.65060000       0.18060000
C       -3.28890000      -0.91700000       1.42150000
C       -2.76690000      -2.31100000       1.82090000
O       -2.19260000      -0.07930000       1.08910000
H        1.13290000       1.82730000       0.30780000
H       -0.27770000       1.95820000      -0.75150000
H       -0.49730000       1.89550000       1.00260000
H        0.59120000      -0.40800000      -0.72400000
H        0.42100000      -0.46120000       1.02870000
H       -1.86390000      -0.07070000      -0.94060000
H       -1.44050000      -2.32450000      -1.27190000
H       -0.65620000      -2.56460000       0.29090000
H       -3.88110000      -1.13080000      -0.77950000
H       -4.81390000      -2.12400000       0.37210000
H       -3.94170000      -0.34240000       2.08440000
H       -3.50210000      -2.93320000       2.34080000
H       -1.80300000      -2.35510000       2.33470000
