16
Properties=species:S:1:pos:R:3 gdb_30398=T pbc="F F F"
C       -0.00300000       1.43920000      -0.10490000
N        0.12860000      -0.00450000      -0.06440000
C        0.62460000      -0.54610000       0.97320000
N        1.08490000       0.05400000       2.13360000
C        1.55850000      -0.72320000       3.06240000
N        1.66860000      -2.08250000       3.07810000
C        1.23690000      -2.66440000       1.97840000
N        1.33960000      -4.01390000       1.85890000
N        0.72660000      -1.96440000       0.94530000
H        0.42230000      -2.40080000       0.08620000
H        0.55080000       1.83010000      -0.96770000
H       -1.05590000       1.70360000      -0.26430000
H        0.35380000       1.94140000       0.80060000
H        1.91930000      -0.23600000       3.96780000
H        1.57090000      -4.49630000       2.71270000
H        0.76550000      -4.50810000       1.19640000
