15
Properties=species:S:1:pos:R:3 gdb_77347=T pbc="F F F"
O        0.24040000       1.29270000       0.41540000
C        0.06260000      -0.04280000       0.06880000
C       -1.40800000      -0.51720000      -0.04690000
N       -1.36660000      -1.70930000      -0.92720000
C       -0.30460000      -1.46950000      -1.91610000
C        0.56600000      -0.35330000      -1.34410000
O        1.42990000       0.28260000      -1.88910000
C       -2.03700000      -0.82360000       1.23320000
N       -2.51520000      -1.08500000       2.25150000
H        0.92310000       1.63950000      -0.17950000
H        0.58150000      -0.72400000       0.76790000
H       -1.98480000       0.27920000      -0.53600000
H       -1.15520000      -2.52790000      -0.36790000
H        0.27750000      -2.37180000      -2.12300000
H       -0.71990000      -1.12750000      -2.87320000
