17
Properties=species:S:1:pos:R:3 gdb_97312=T pbc="F F F"
C       -0.15780000       1.47560000       0.14540000
N        0.02640000       0.04160000       0.17100000
C       -0.99320000      -0.67650000      -0.00900000
N       -0.99550000      -2.07010000      -0.00820000
C       -2.21320000      -2.82600000      -0.26020000
C       -1.74580000      -4.24730000       0.08550000
O       -0.32320000      -4.20410000      -0.03960000
C        0.12500000      -2.91040000       0.02060000
O        1.27940000      -2.62090000       0.07220000
H        0.47190000       1.91040000      -0.63910000
H       -1.20060000       1.79120000      -0.02920000
H        0.18020000       1.90400000       1.09580000
H       -2.00520000      -0.27560000      -0.17530000
H       -3.03730000      -2.49450000       0.37720000
H       -2.52810000      -2.74040000      -1.30840000
H       -2.00580000      -4.52080000       1.11440000
H       -2.13490000      -5.00610000      -0.59520000
