18
Properties=species:S:1:pos:R:3 gdb_92426=T pbc="F F F"
O        0.23570000       1.21020000      -0.61360000
C        0.02240000      -0.09960000      -0.14710000
C        0.22820000      -0.24820000       1.37680000
N       -1.14800000      -0.81920000       1.57430000
C       -2.14930000       0.23320000       1.94980000
C       -2.46560000       0.54400000       0.46360000
C       -1.43820000      -0.56310000       0.10040000
C       -1.95760000      -1.70430000      -0.72290000
O       -1.59590000      -1.93690000      -1.85040000
H        0.17700000       1.19960000      -1.57480000
H        0.57610000      -0.83140000      -0.74520000
H        1.01570000      -0.94090000       1.68430000
H        0.38210000       0.71450000       1.87500000
H       -2.98510000      -0.19610000       2.50990000
H       -1.72770000       1.05630000       2.53590000
H       -3.49290000       0.34440000       0.15050000
H       -2.16290000       1.52830000       0.10260000
H       -2.72480000      -2.33110000      -0.21390000
