17
Properties=species:S:1:pos:R:3 gdb_5747=T pbc="F F F"
C       -0.28130000       1.54780000       0.06320000
C       -0.00730000       0.04810000       0.02620000
C        0.71960000      -0.50870000      -1.26680000
N        1.80880000      -0.92560000      -0.37340000
C        2.99400000      -1.55170000      -0.10910000
C        3.14890000      -1.46940000       1.26770000
C        2.02380000      -0.79090000       1.83930000
C        1.21940000      -0.47570000       0.76680000
H        0.62030000       2.11820000      -0.18180000
H       -1.06880000       1.82250000      -0.64710000
H       -0.60980000       1.85430000       1.06130000
H       -0.92590000      -0.50720000       0.24540000
H        0.21630000      -1.33770000      -1.77350000
H        1.01160000       0.25000000      -1.99990000
H        3.62300000      -1.98020000      -0.87190000
H        3.99610000      -1.85430000       1.81640000
H        1.86220000      -0.58350000       2.88520000
