18
Properties=species:S:1:pos:R:3 gdb_54197=T pbc="F F F"
C       -0.06250000       1.54210000       0.19040000
C       -0.00180000       0.02040000       0.03450000
C        1.07590000      -0.54850000      -0.97820000
C        1.74870000      -1.24760000       0.20930000
O        2.09490000      -0.23800000       1.16530000
C        0.75150000      -0.73080000       1.15590000
C       -1.40200000      -0.56020000      -0.15630000
N       -1.94100000      -0.39810000      -1.40090000
O       -2.00310000      -1.11620000       0.74400000
H        0.93100000       1.91990000       0.44300000
H       -0.39320000       2.02960000      -0.73310000
H       -0.75790000       1.82450000       0.98750000
H        0.64780000      -1.24700000      -1.70100000
H        1.69320000       0.19050000      -1.49620000
H        2.32900000      -2.16240000       0.22070000
H        0.34140000      -1.13780000       2.07020000
H       -1.48460000       0.14000000      -2.11620000
H       -2.89980000      -0.67250000      -1.54080000
