18
Properties=species:S:1:pos:R:3 gdb_99827=T pbc="F F F"
C       -0.21050000       1.38370000       0.05330000
O        0.10610000      -0.00290000       0.04800000
C        0.68510000      -0.51390000      -1.15580000
C        0.60510000      -2.04740000      -1.03360000
C       -0.02650000      -0.06730000      -2.35660000
C       -0.64580000       0.28420000      -3.32390000
C        2.19980000      -0.14360000      -1.26280000
N        2.76070000       0.16540000      -0.06490000
O        2.80400000      -0.19440000      -2.31200000
H        0.67640000       2.00740000      -0.12190000
H       -0.96660000       1.62400000      -0.70130000
H       -0.60830000       1.59850000       1.04760000
H       -0.44130000      -2.35570000      -0.99260000
H        1.08970000      -2.51180000      -1.89410000
H        1.10830000      -2.36740000      -0.11730000
H       -1.17380000       0.59710000      -4.19090000
H        2.20900000       0.12450000       0.77490000
H        3.75550000       0.30930000      -0.01960000
