16
Properties=species:S:1:pos:R:3 gdb_123783=T pbc="F F F"
C        0.31480000       1.49110000       0.26890000
C        1.23810000       0.35750000      -0.12080000
C       -0.25100000       0.11770000       0.08420000
N       -0.72520000      -0.58770000       1.24150000
C       -0.68130000      -1.85820000       1.17060000
N       -0.23780000      -2.74440000       0.19830000
N       -0.35530000      -4.04640000       0.60020000
N       -0.88750000      -4.05270000       1.74800000
N       -1.11270000      -2.76610000       2.12180000
H        0.37530000       1.84860000       1.29060000
H        0.08970000       2.25270000      -0.46940000
H        1.64210000       0.34010000      -1.12800000
H        1.90750000      -0.02120000       0.64370000
H       -0.83490000      -0.03900000      -0.82540000
H        0.27540000      -2.51950000      -0.63540000
H       -1.50770000      -2.55480000       3.02140000
