18
Properties=species:S:1:pos:R:3 gdb_14193=T pbc="F F F"
C       -0.09890000       1.47690000       0.06800000
C        0.08420000      -0.01320000       0.04720000
C        0.94010000      -0.78490000      -0.99080000
C        0.80780000      -1.91800000       0.03310000
C       -0.72830000      -1.98480000       0.42930000
C       -0.34570000      -1.66400000       1.89180000
C        0.77400000      -0.87050000       1.20380000
O       -1.17610000      -0.71090000      -0.05420000
H        0.86940000       1.98370000       0.11130000
H       -0.62180000       1.80960000      -0.83480000
H       -0.69160000       1.78220000       0.93590000
H        0.51700000      -0.89620000      -1.99280000
H        1.97050000      -0.42060000      -1.03990000
H        1.40040000      -2.83070000       0.04600000
H       -1.40990000      -2.78090000       0.13320000
H       -1.09640000      -1.14840000       2.49630000
H        0.05760000      -2.52940000       2.42570000
H        1.65960000      -0.47070000       1.69530000
