17
Properties=species:S:1:pos:R:3 gdb_65958=T pbc="F F F"
O       -0.01030000       1.40200000      -0.47840000
C       -0.01730000       0.04390000      -0.08680000
C        0.05950000      -0.25640000       1.45680000
C       -1.15090000      -1.22460000       1.31850000
C       -1.43280000      -0.57330000      -0.03370000
C       -2.64920000       0.06790000      -0.52750000
O       -2.12090000      -1.13180000      -1.12310000
C        0.92540000      -0.74800000      -0.86680000
C        1.73010000      -1.37160000      -1.50680000
H        0.85730000       1.60660000      -0.84200000
H        0.99730000      -0.66960000       1.82780000
H       -0.19400000       0.65290000       2.00540000
H       -0.83880000      -2.26590000       1.20460000
H       -1.93450000      -1.16470000       2.07550000
H       -3.58160000      -0.05710000       0.02160000
H       -2.56720000       0.96390000      -1.13780000
H        2.42570000      -1.93240000      -2.08120000
