14
Properties=species:S:1:pos:R:3 gdb_27496=T pbc="F F F"
N        0.08270000       1.38990000       0.15640000
C       -0.04500000       0.02010000       0.04200000
C       -1.20600000      -0.67050000       0.03130000
C       -1.19520000      -2.10770000      -0.00850000
N       -2.22470000      -2.84400000      -0.01820000
O        0.08220000      -2.71610000      -0.05750000
C        1.25880000      -2.04750000      -0.02360000
O        2.31130000      -2.62240000      -0.00790000
N        1.15690000      -0.66580000      -0.01260000
H        0.81810000       1.80590000      -0.39970000
H       -0.78730000       1.89400000       0.06430000
H       -2.16580000      -0.17600000       0.03650000
H       -1.96400000      -3.82870000      -0.06290000
H        2.02740000      -0.18510000       0.15380000
