20
Properties=species:S:1:pos:R:3 gdb_58209=T pbc="F F F"
C        0.04590000       1.58090000      -0.08010000
C        0.02300000       0.06220000       0.06860000
O        0.69980000      -0.23210000       1.27250000
C       -1.42400000      -0.50440000       0.04710000
N       -2.21550000      -0.11390000      -1.11830000
C       -1.43830000      -2.05860000       0.08720000
N       -0.71420000      -2.60290000       1.24860000
C       -2.82200000      -2.57250000       0.02340000
N       -3.87640000      -3.04480000       0.06270000
H        1.07730000       1.93110000       0.00940000
H       -0.34640000       1.90630000      -1.04660000
H       -0.53830000       2.05100000       0.71850000
H        0.55330000      -0.38220000      -0.79860000
H        0.58100000      -1.18410000       1.42870000
H       -1.94010000      -0.13780000       0.94370000
H       -2.49960000       0.85610000      -1.05040000
H       -1.66450000      -0.20060000      -1.96850000
H       -0.91580000      -2.40990000      -0.81210000
H       -1.25400000      -2.44170000       2.09520000
H       -0.61280000      -3.60910000       1.15680000
