22
Properties=species:S:1:pos:R:3 gdb_99133=T pbc="F F F"
C       -0.25700000       1.24990000      -0.78810000
C       -0.53540000       0.30570000       0.37850000
C       -1.52150000      -0.80800000       0.03970000
O       -2.18160000      -0.78030000      -0.97590000
C       -1.58440000      -1.93260000       1.08020000
N       -2.74910000      -2.78510000       1.24060000
C       -4.01790000      -2.60110000       0.53910000
C       -3.16260000      -3.79790000       0.27380000
C       -2.47720000      -4.00050000      -1.05860000
H        0.41410000       2.05690000      -0.48170000
H        0.20630000       0.71650000      -1.62300000
H       -1.18600000       1.68880000      -1.15890000
H        0.38790000      -0.14830000       0.76320000
H       -0.95740000       0.85430000       1.23320000
H       -0.70630000      -2.56630000       0.88250000
H       -1.37880000      -1.46670000       2.05450000
H       -4.90310000      -2.68200000       1.16700000
H       -4.07240000      -1.85890000      -0.24910000
H       -3.44610000      -4.73030000       0.76380000
H       -2.30010000      -3.05190000      -1.56780000
H       -1.51920000      -4.52010000      -0.93370000
H       -3.10100000      -4.62790000      -1.70470000
