13
Properties=species:S:1:pos:R:3 gdb_24949=T pbc="F F F"
O        0.09250000       0.06250000       0.00220000
C       -0.02920000       1.24170000       0.01050000
C       -1.31840000       2.10470000       0.03350000
C       -0.74900000       3.48780000       0.03300000
C        0.58820000       3.34230000       0.01310000
O        1.27710000       4.47730000       0.00930000
C        0.29170000       5.46060000       0.02880000
C       -0.95420000       4.90870000       0.04330000
O        1.10730000       2.09020000      -0.00110000
H       -1.92450000       1.83940000      -0.84000000
H       -1.89950000       1.82970000       0.92080000
H        0.66310000       6.46990000       0.02910000
H       -1.88250000       5.45790000       0.05940000
