19
Properties=species:S:1:pos:R:3 gdb_1784=T pbc="F F F"
C       -0.04790000       1.48990000      -0.14250000
C        0.05330000      -0.00860000       0.04380000
C        1.36880000      -0.73830000      -0.09950000
C        0.69940000      -0.65400000       1.25460000
C        1.33500000       0.18500000       2.34710000
C        0.03850000      -1.91480000       1.76510000
O        1.03230000      -2.74530000       2.35640000
H        0.85160000       2.00870000       0.19960000
H       -0.18250000       1.73690000      -1.20150000
H       -0.90060000       1.90700000       0.40550000
H       -0.81130000      -0.54550000      -0.34230000
H        1.38820000      -1.69490000      -0.61090000
H        2.26060000      -0.13800000      -0.25200000
H        1.88880000       1.03650000       1.94500000
H        0.57830000       0.57450000       3.03970000
H        2.03190000      -0.42830000       2.92510000
H       -0.73810000      -1.65150000       2.50260000
H       -0.46160000      -2.43450000       0.93220000
H        0.58780000      -3.47040000       2.80500000
