18
Properties=species:S:1:pos:R:3 gdb_13621=T pbc="F F F"
C        0.34520000       1.62270000      -0.37160000
C        0.14940000       0.16160000      -0.06320000
O        1.31890000      -0.66270000       0.04870000
C        0.49320000      -0.49660000       1.20680000
C        1.12700000       0.19050000       2.39310000
O        0.09350000       0.53870000       3.29530000
C        2.13250000      -0.73260000       3.09070000
O        2.54550000      -0.16310000       4.33160000
H        1.15100000       2.06290000       0.21870000
H        0.59220000       1.75250000      -1.43050000
H       -0.57750000       2.17700000      -0.17040000
H       -0.65030000      -0.31160000      -0.63720000
H       -0.08320000      -1.38200000       1.48450000
H        1.66910000       1.08860000       2.05180000
H        0.52040000       0.59670000       4.16140000
H        1.64480000      -1.67830000       3.34940000
H        2.98180000      -0.94810000       2.43050000
H        3.14130000       0.56900000       4.13920000
