16
Properties=species:S:1:pos:R:3 gdb_96737=T pbc="F F F"
C        2.59630000       0.80870000      -0.47790000
N        1.91670000      -0.47320000      -0.43390000
C        1.16680000      -0.79450000       0.51850000
C        0.49650000      -2.14970000       0.60170000
C       -0.95850000      -2.04350000       0.64990000
C       -2.15370000      -1.92700000       0.68790000
O        0.91670000      -0.00090000       1.64540000
C       -0.06650000       0.94550000       1.57220000
O       -0.32590000       1.65250000       2.49320000
H        2.50060000       1.41180000       0.43140000
H        3.65750000       0.62600000      -0.67370000
H        2.21280000       1.38030000      -1.32990000
H        0.82040000      -2.73390000      -0.26310000
H        0.85690000      -2.65800000       1.50580000
H       -3.21170000      -1.84050000       0.72550000
H       -0.55940000       0.96570000       0.58670000
