23
Properties=species:S:1:pos:R:3 gdb_111754=T pbc="F F F"
C        0.02540000       1.39650000      -0.22130000
C        0.01340000      -0.05500000       0.27370000
C       -1.36170000      -0.68800000       0.17220000
C       -1.96560000      -1.26530000      -1.08370000
C       -0.92510000      -2.02350000      -1.91930000
C       -0.61480000      -2.93170000      -0.68740000
C       -1.67210000      -2.16780000       0.12890000
C       -2.62430000      -2.81080000       1.09190000
O       -1.99500000      -3.21660000       2.30370000
H        1.02110000       1.84090000      -0.12720000
H       -0.27270000       1.45420000      -1.27330000
H       -0.67210000       2.01660000       0.35290000
H        0.74760000      -0.63670000      -0.29270000
H        0.34810000      -0.08770000       1.31920000
H       -2.11210000      -0.14650000       0.75080000
H       -2.92830000      -0.92760000      -1.45150000
H       -1.37620000      -2.58480000      -2.74030000
H       -0.09920000      -1.43070000      -2.32560000
H       -0.90440000      -3.97160000      -0.85740000
H        0.40820000      -2.92270000      -0.30010000
H       -3.46850000      -2.12830000       1.28720000
H       -3.04270000      -3.73020000       0.66560000
H       -1.55550000      -2.44070000       2.66750000
