18
Properties=species:S:1:pos:R:3 gdb_86374=T pbc="F F F"
O        0.32310000       0.70760000      -1.04500000
C        0.08210000      -0.23540000      -0.03940000
C        0.00970000       0.20120000       1.45040000
C       -1.16760000      -0.80450000       1.63530000
O       -2.26370000      -0.47030000       2.43030000
C       -1.36370000      -0.80700000       0.09260000
O       -2.31710000       0.21410000      -0.20000000
C       -2.74140000       0.32020000      -1.48130000
N       -3.42270000       1.32260000      -1.82630000
H       -0.27230000       1.45240000      -0.90070000
H        0.80270000      -1.04360000      -0.19260000
H        0.89930000       0.08070000       2.07040000
H       -0.35300000       1.23050000       1.53780000
H       -0.80560000      -1.77860000       1.97560000
H       -2.74930000       0.22090000       1.96270000
H       -1.62920000      -1.73730000      -0.41960000
H       -2.44340000      -0.52860000      -2.10840000
H       -3.69310000       1.24220000      -2.80420000
