23
Properties=species:S:1:pos:R:3 gdb_123079=T pbc="F F F"
C        0.00460000       1.52590000       0.05830000
C        0.01080000       0.00700000       0.01490000
O        0.68940000      -0.47290000       1.15670000
C        0.75560000      -1.87910000       1.22060000
C        1.50580000      -2.27230000       2.48620000
C        1.62630000      -3.80080000       2.63820000
C        2.34240000      -4.19990000       3.84510000
C        2.93640000      -4.50410000       4.84730000
C        3.65360000      -4.88260000       6.05690000
H        1.02740000       1.91300000       0.06530000
H       -0.51520000       1.93130000      -0.81500000
H       -0.50150000       1.88110000       0.96050000
H       -1.02130000      -0.38360000      -0.00750000
H        0.50790000      -0.35170000      -0.90290000
H       -0.26050000      -2.31330000       1.22540000
H        1.26860000      -2.28200000       0.32870000
H        2.50390000      -1.82310000       2.46580000
H        0.98760000      -1.85420000       3.35510000
H        0.62230000      -4.24730000       2.64280000
H        2.13370000      -4.21630000       1.75640000
H        3.69890000      -5.97170000       6.16920000
H        4.68390000      -4.50960000       6.04410000
H        3.16800000      -4.47890000       6.95240000
