18
Properties=species:S:1:pos:R:3 gdb_77022=T pbc="F F F"
C       -1.80150000       0.78970000      -0.77280000
N       -0.82740000      -0.26500000      -0.51670000
C        0.37380000      -0.37520000      -1.32270000
C        0.72060000       0.57910000      -2.46020000
C       -0.01980000       0.28000000      -3.68200000
C       -0.63620000       0.01610000      -4.67950000
C        0.46480000       0.06730000       0.11610000
C        0.82300000       1.42090000       0.44020000
C        1.11870000       2.54700000       0.74600000
H       -1.37270000       1.78790000      -0.92920000
H       -2.38170000       0.51360000      -1.65720000
H       -2.47930000       0.84640000       0.08390000
H        0.65210000      -1.40670000      -1.53500000
H        0.55240000       1.61730000      -2.15940000
H        1.79770000       0.49550000      -2.65490000
H       -1.17820000      -0.20820000      -5.56450000
H        0.78570000      -0.66430000       0.85520000
H        1.38500000       3.53860000       1.01760000
