18
Properties=species:S:1:pos:R:3 gdb_58493=T pbc="F F F"
C        0.07560000       1.47570000      -0.30310000
C        0.04290000       0.02430000       0.18930000
O        0.52850000      -0.08540000       1.51520000
C       -1.35830000      -0.56530000       0.11520000
O       -2.24090000       0.00010000       1.05270000
C       -1.93530000      -1.08410000      -1.16440000
C       -1.56820000      -2.05750000      -0.04080000
C       -0.45940000      -2.95340000      -0.20610000
N        0.42900000      -3.67890000      -0.35670000
H        1.08730000       1.87410000      -0.19840000
H       -0.22350000       1.55090000      -1.35390000
H       -0.59160000       2.10800000       0.29450000
H        0.71370000      -0.58160000      -0.42930000
H       -0.19240000       0.19590000       2.09290000
H       -2.55510000       0.84100000       0.70100000
H       -2.99500000      -0.94000000      -1.34140000
H       -1.30980000      -1.09050000      -2.04990000
H       -2.39800000      -2.45820000       0.53050000
