18
Properties=species:S:1:pos:R:3 gdb_32992=T pbc="F F F"
C        0.01050000       1.53950000       0.01020000
C       -0.01420000       0.00990000       0.00270000
C       -1.45010000      -0.55600000       0.01260000
C       -1.44200000      -2.05640000       0.00460000
N       -1.42720000      -2.67780000      -1.18390000
C       -1.38720000      -4.00620000      -1.12190000
N       -1.36070000      -4.74310000      -0.01040000
C       -1.37280000      -4.01830000       1.10920000
N       -1.41200000      -2.69060000       1.18600000
H        1.03800000       1.91570000       0.00270000
H       -0.50160000       1.94880000      -0.86740000
H       -0.48540000       1.93990000       0.90120000
H        0.50800000      -0.36930000      -0.88360000
H        0.52370000      -0.37820000       0.87570000
H       -1.97230000      -0.21180000       0.91010000
H       -1.98800000      -0.20230000      -0.87180000
H       -1.37710000      -4.54280000      -2.06870000
H       -1.35050000      -4.56510000       2.04990000
