12
Properties=species:S:1:pos:R:3 gdb_4251=T pbc="F F F"
N       -0.05100000       1.28330000       0.34450000
C       -0.07500000       0.07670000      -0.03130000
O        1.11820000      -0.55410000      -0.43250000
C        1.22420000      -1.84490000      -0.85630000
O        2.28000000      -2.30810000      -1.18310000
N        0.03640000      -2.55130000      -0.87800000
C       -1.17700000      -2.01310000      -0.50260000
C       -1.26750000      -0.74270000      -0.08690000
H        0.89680000       1.65910000       0.30200000
H        0.11440000      -3.50490000      -1.19200000
H       -2.02530000      -2.68230000      -0.56960000
H       -2.20290000      -0.29580000       0.21250000
