16
Properties=species:S:1:pos:R:3 gdb_36680=T pbc="F F F"
N       -0.16110000      -1.12740000       0.03390000
C       -0.05400000       0.01690000       0.15240000
C        0.09210000       1.46380000       0.28560000
C        1.36890000       1.99540000      -0.39890000
C        1.45510000       3.49780000      -0.26970000
N        1.82010000       4.01900000       1.04840000
C        2.75410000       4.21960000      -0.07790000
C        4.01320000       3.51650000      -0.01160000
N        5.02520000       2.95850000       0.01120000
H       -0.79930000       1.94030000      -0.14000000
H        0.11730000       1.72340000       1.34940000
H        2.24620000       1.53210000       0.05990000
H        1.36950000       1.71720000      -1.45780000
H        0.71150000       4.05500000      -0.83910000
H        1.34400000       4.89310000       1.25420000
H        2.83330000       5.21220000      -0.51290000
