19
Properties=species:S:1:pos:R:3 gdb_48136=T pbc="F F F"
O       -0.74990000       1.39800000       0.47590000
C        0.37740000       0.97880000       0.49520000
C        1.61770000       1.83240000       0.17890000
O        2.69150000       1.27410000       0.20350000
C        1.38810000       3.29540000      -0.10850000
C        1.06760000       4.06490000       1.21740000
C        1.62660000       5.47150000       0.96020000
C        2.94030000       5.19640000       0.21310000
C        2.60490000       4.02490000      -0.73870000
H        0.63540000      -0.07500000       0.73380000
H        0.50360000       3.36150000      -0.74980000
H        0.00270000       4.04060000       1.45550000
H        1.60630000       3.60760000       2.05680000
H        0.93640000       6.03420000       0.31910000
H        1.76220000       6.04610000       1.88110000
H        3.32700000       6.07140000      -0.31620000
H        3.70960000       4.88670000       0.93010000
H        3.44690000       3.34060000      -0.86100000
H        2.33610000       4.39650000      -1.73180000
