18
Properties=species:S:1:pos:R:3 gdb_83559=T pbc="F F F"
O       -0.06970000       1.57200000       0.02370000
C        0.01860000       0.17320000       0.02330000
C        0.16620000      -0.59550000       1.37790000
C       -0.96580000       0.02140000       2.21760000
C       -2.10510000       0.03180000       1.14360000
C       -1.33580000      -0.57290000      -0.04610000
C       -0.59030000      -1.76570000       0.65470000
C        0.22220000      -2.60160000      -0.21160000
N        0.86470000      -3.28120000      -0.89270000
H        0.81790000       1.93840000      -0.03010000
H        0.72360000      -0.19290000      -0.73040000
H        1.13260000      -0.76510000       1.85150000
H       -1.20860000      -0.58420000       3.09450000
H       -0.70810000       1.02800000       2.55100000
H       -2.96530000      -0.57970000       1.42820000
H       -2.45490000       1.04050000       0.92000000
H       -1.86580000      -0.71640000      -0.98630000
H       -1.20870000      -2.39930000       1.29550000
