21
Properties=species:S:1:pos:R:3 gdb_118262=T pbc="F F F"
C       -0.07720000       1.51990000      -0.01640000
C       -0.03460000      -0.01020000      -0.00660000
C        0.67410000      -0.57570000      -1.23700000
C        0.62170000      -2.10290000      -1.32180000
O        1.25460000      -2.60340000      -2.49080000
O        0.67020000      -0.51640000       1.12840000
C       -0.04400000      -0.44870000       2.34730000
C        0.68230000      -1.17490000       3.38190000
C        1.26160000      -1.76490000       4.25270000
H        0.93850000       1.92770000      -0.02820000
H       -0.60610000       1.87940000      -0.90460000
H       -0.59670000       1.91900000       0.85960000
H       -1.06900000      -0.39700000       0.02020000
H        0.22410000      -0.15230000      -2.14170000
H        1.72170000      -0.24570000      -1.21220000
H        1.04830000      -2.53890000      -0.40920000
H       -0.42080000      -2.43610000      -1.38690000
H        2.19780000      -2.43100000      -2.40740000
H       -0.18900000       0.59370000       2.67220000
H       -1.05060000      -0.88510000       2.22800000
H        1.77710000      -2.28950000       5.01860000
