25
Properties=species:S:1:pos:R:3 gdb_104402=T pbc="F F F"
C        0.11620000       1.59430000       0.21520000
C        0.25770000       0.07060000       0.10400000
C        0.72530000      -0.47000000      -1.26970000
C       -0.20040000      -0.01180000      -2.40160000
C        2.19650000      -0.09520000      -1.53230000
O        2.98260000      -0.98600000      -0.75180000
C        2.27160000      -2.21340000      -0.59680000
C        0.88760000      -2.02250000      -1.24760000
C       -0.22110000      -2.85010000      -0.59880000
H        1.05010000       2.11600000      -0.01710000
H       -0.65820000       1.98470000      -0.45190000
H       -0.16380000       1.87290000       1.23600000
H        0.96010000      -0.27350000       0.87190000
H       -0.71070000      -0.38130000       0.34790000
H       -0.18880000       1.07560000      -2.52310000
H        0.10180000      -0.45260000      -3.35750000
H       -1.23790000      -0.30780000      -2.21010000
H        2.42930000      -0.20460000      -2.60530000
H        2.45720000       0.92540000      -1.23770000
H        2.83270000      -3.03420000      -1.06360000
H        2.18890000      -2.43690000       0.47590000
H        0.96540000      -2.33400000      -2.29770000
H       -0.31330000      -2.64240000       0.47140000
H       -1.19240000      -2.65760000      -1.06650000
H       -0.01380000      -3.92010000      -0.70780000
