18
Properties=species:S:1:pos:R:3 gdb_19471=T pbc="F F F"
C        0.17470000       1.34310000       0.08470000
O       -0.26170000       0.03970000      -0.23740000
C        0.49940000      -0.57270000      -1.23600000
C        1.82470000      -1.33080000      -0.78140000
C        0.85710000      -2.43510000      -0.23880000
C        0.05000000      -2.04850000      -1.52350000
C        1.06070000      -2.38900000      -2.61870000
C        2.21710000      -1.92000000      -2.13280000
H        1.18900000       1.34580000       0.50950000
H        0.16890000       1.99950000      -0.79900000
H       -0.51930000       1.74320000       0.82750000
H        0.60920000       0.08510000      -2.11050000
H        2.59010000      -0.86120000      -0.16400000
H        1.24740000      -3.45380000      -0.18290000
H        0.35150000      -2.14480000       0.68390000
H       -0.99960000      -2.30410000      -1.66260000
H        0.84490000      -2.86110000      -3.56660000
H        3.20050000      -1.90120000      -2.58120000
