19
Properties=species:S:1:pos:R:3 gdb_85437=T pbc="F F F"
C        0.53240000       1.54290000      -0.27000000
C       -0.02450000       0.16130000       0.10090000
C        0.20940000      -0.87690000      -1.01530000
C        1.58010000      -1.49580000      -0.71310000
O        2.26270000      -2.11630000      -1.48400000
C        1.93860000      -1.18180000       0.74860000
C        0.71630000      -0.46270000       1.28910000
C        0.55730000      -0.01230000       2.67190000
O       -0.09410000      -1.20250000       2.21500000
H        1.59440000       1.49390000      -0.53740000
H       -0.00230000       1.95450000      -1.13160000
H        0.43060000       2.24870000       0.55990000
H       -1.08370000       0.25040000       0.35650000
H       -0.52740000      -1.68800000      -0.95000000
H        0.17150000      -0.48110000      -2.03280000
H        2.16830000      -2.09330000       1.30540000
H        2.83560000      -0.55150000       0.75930000
H        1.36320000      -0.16540000       3.38900000
H       -0.10390000       0.82460000       2.89630000
