14
Properties=species:S:1:pos:R:3 gdb_132984=T pbc="F F F"
C       -0.00830000       1.44270000      -0.00490000
N       -0.00500000      -0.01700000      -0.02030000
C       -0.13010000      -0.71720000      -1.16540000
N       -0.13560000      -2.01550000      -1.25900000
C       -0.00280000      -2.67320000      -0.08850000
F       -0.01100000      -3.99100000      -0.20480000
C        0.13180000      -2.10300000       1.13880000
C        0.13950000      -0.66930000       1.25040000
O        0.24920000       0.00660000       2.25580000
H        0.92570000       1.80980000       0.42510000
H       -0.12240000       1.81110000      -1.02510000
H       -0.82810000       1.80400000       0.61930000
H       -0.23320000      -0.12780000      -2.07300000
H        0.23410000      -2.69250000       2.03880000
