18
Properties=species:S:1:pos:R:3 gdb_113613=T pbc="F F F"
C        0.27990000       1.55400000       0.09870000
C       -0.25470000       0.15070000      -0.20810000
C        0.50800000      -0.50690000      -1.33340000
N        1.78710000      -1.12560000      -0.99610000
C        0.67420000      -1.99860000      -1.45450000
C        0.11250000      -2.91020000      -0.50500000
C       -0.39270000      -3.69900000       0.26000000
C       -0.96580000      -4.61370000       1.20970000
O       -1.61860000      -5.59050000       0.91770000
H        1.33520000       1.50920000       0.38470000
H        0.19360000       2.21420000      -0.77160000
H       -0.27590000       2.01400000       0.92080000
H       -0.18280000      -0.48140000       0.68210000
H       -1.31590000       0.20010000      -0.48140000
H        0.44330000       0.00890000      -2.29210000
H        2.45810000      -1.02210000      -1.75310000
H        0.72970000      -2.38560000      -2.46950000
H       -0.75990000      -4.35110000       2.26760000
