18
Properties=species:S:1:pos:R:3 gdb_55837=T pbc="F F F"
C        0.27060000       1.49900000      -0.13960000
C        0.19930000      -0.01690000      -0.04720000
O        1.18250000      -0.72090000      -0.18240000
N       -1.04960000      -0.52690000       0.19920000
C       -1.30410000      -1.93790000       0.31940000
C       -2.04120000      -2.44280000       1.60170000
C       -2.95380000      -3.27040000       0.68120000
O       -3.72710000      -4.16340000       0.86510000
C       -2.42460000      -2.55910000      -0.57540000
H        0.67900000       1.77120000      -1.11630000
H       -0.69280000       1.99780000      -0.00470000
H        0.96910000       1.86350000       0.61820000
H       -1.82190000       0.11190000       0.30090000
H       -0.34320000      -2.43120000       0.17660000
H       -1.46120000      -2.99030000       2.34820000
H       -2.60250000      -1.64980000       2.11030000
H       -3.13990000      -1.81290000      -0.94150000
H       -2.12380000      -3.19130000      -1.41410000
