20
Properties=species:S:1:pos:R:3 gdb_63523=T pbc="F F F"
C        0.03150000       1.52610000      -0.18230000
C       -0.03050000       0.02090000      -0.02150000
C       -1.16800000      -0.65080000      -0.76410000
N        1.29540000      -0.64600000      -0.00920000
C        0.49520000      -0.61090000       1.21580000
C        0.99220000       0.05720000       2.51220000
C        0.37200000      -1.12270000       3.28090000
O        0.25820000      -1.39200000       4.44020000
C       -0.07130000      -1.82560000       1.98000000
H        0.90490000       1.93770000       0.32790000
H        0.10400000       1.79590000      -1.24180000
H       -0.86840000       2.00200000       0.22360000
H       -1.08120000      -0.47240000      -1.84210000
H       -1.17850000      -1.73260000      -0.60050000
H       -2.13780000      -0.25320000      -0.44370000
H        1.22860000      -1.56540000      -0.44270000
H        2.08190000       0.11460000       2.60220000
H        0.56830000       1.03510000       2.76080000
H       -1.14830000      -2.00600000       1.90500000
H        0.45210000      -2.77310000       1.80790000
