14
Properties=species:S:1:pos:R:3 gdb_5172=T pbc="F F F"
O       -0.35450000       0.08880000       0.00680000
C       -0.09420000       1.27040000       0.00950000
N        1.16370000       1.80960000      -0.00090000
C        2.36290000       1.08860000      -0.01680000
C        2.62220000      -0.26320000      -0.03150000
C        4.04070000      -0.40570000      -0.04320000
C        4.59630000       0.84770000      -0.03570000
N        3.56140000       1.76120000      -0.01920000
H       -0.86410000       2.06630000       0.02080000
H        1.22110000       2.81620000       0.00130000
H        1.87450000      -1.03560000      -0.03310000
H        4.58570000      -1.33680000      -0.05610000
H        5.62120000       1.17960000      -0.04030000
H        3.67480000       2.75950000      -0.00950000
