17
Properties=species:S:1:pos:R:3 gdb_56461=T pbc="F F F"
C       -0.73050000       0.95900000       1.55720000
C       -0.09070000       0.52940000       0.21310000
C        0.86860000      -0.55520000       0.38650000
C        1.64850000      -1.45900000       0.52880000
C       -1.20830000       0.15170000      -0.77840000
O       -1.54860000       0.90980000      -1.65330000
C       -1.92580000      -1.17980000      -0.56800000
C       -3.42370000      -0.95520000      -0.40690000
O       -4.08500000      -1.46060000       0.45990000
H        0.05080000       1.26000000       2.25870000
H       -1.40520000       1.80430000       1.39740000
H       -1.29360000       0.13780000       2.00890000
H        0.40910000       1.39650000      -0.23170000
H        2.34710000      -2.24980000       0.65160000
H       -1.78400000      -1.75830000      -1.49060000
H       -1.53880000      -1.75760000       0.27130000
H       -3.86000000      -0.27220000      -1.16470000
