17
Properties=species:S:1:pos:R:3 gdb_98104=T pbc="F F F"
O        0.07650000       1.32520000      -0.02960000
C       -0.00090000      -0.07100000      -0.00140000
C       -1.43220000      -0.53080000       0.20550000
O       -2.32060000       0.28450000       0.33860000
C       -1.70440000      -2.02230000       0.22910000
N       -0.72850000      -2.79970000      -0.04310000
N       -2.97800000      -2.37820000       0.64070000
C       -4.20500000      -2.00210000      -0.03310000
C       -3.75990000      -3.43230000       0.02460000
H       -0.82640000       1.64050000       0.12870000
H        0.37800000      -0.51770000      -0.93130000
H        0.61350000      -0.49920000       0.80570000
H       -1.01210000      -3.78140000      -0.00090000
H       -5.00470000      -1.65050000       0.61090000
H       -4.12330000      -1.48910000      -0.98660000
H       -3.37140000      -3.87640000      -0.89020000
H       -4.23970000      -4.12710000       0.70720000
