19
Properties=species:S:1:pos:R:3 gdb_83166=T pbc="F F F"
C       -0.32200000       1.53750000       0.13520000
C       -0.04420000       0.05300000       0.01230000
C        0.53130000      -0.65070000      -1.17290000
C        1.12260000       0.05010000      -2.37540000
O        1.82670000       1.25960000      -2.07890000
C        2.59570000       1.33430000      -0.95340000
N        3.34450000       2.32890000      -0.72940000
C        2.50900000       0.18930000       0.03890000
N        1.27910000      -0.59760000       0.08170000
H        0.27060000       2.16300000      -0.52880000
H       -1.37810000       1.71640000      -0.09480000
H       -0.15540000       1.87020000       1.16550000
H       -0.77020000      -0.53670000       0.57240000
H        0.13870000      -1.63460000      -1.43450000
H        1.80550000      -0.64260000      -2.88850000
H        0.34540000       0.33370000      -3.09180000
H        3.30830000       2.98370000      -1.51390000
H        3.32100000      -0.51330000      -0.19040000
H        2.72500000       0.59920000       1.02760000
