18
Properties=species:S:1:pos:R:3 gdb_84461=T pbc="F F F"
C       -0.07440000       1.59110000       0.06230000
C        0.02080000       0.05960000      -0.00820000
C        0.80840000      -0.45350000      -1.20250000
C        1.79190000      -1.28610000      -0.86250000
C        1.86080000      -1.44160000       0.62740000
N        2.16890000      -0.13090000       1.30030000
C        0.76930000      -0.56660000       1.17090000
C        2.28030000      -2.66320000       1.24200000
C        2.65720000      -3.68830000       1.74710000
H        0.92310000       2.02490000       0.16620000
H       -0.53940000       1.99590000      -0.84210000
H       -0.67990000       1.90530000       0.91860000
H       -0.99890000      -0.35130000      -0.03850000
H        0.59100000      -0.12570000      -2.21340000
H        2.48630000      -1.77800000      -1.53150000
H        2.47910000      -0.33240000       2.25040000
H        0.22780000      -0.84840000       2.06750000
H        2.98170000      -4.59550000       2.19280000
