15
Properties=species:S:1:pos:R:3 gdb_21992=T pbc="F F F"
N        0.03080000       1.36350000       0.15950000
C       -0.06210000      -0.01350000       0.08630000
C       -1.18270000      -0.74590000      -0.07580000
C       -1.13550000      -2.19230000      -0.03910000
C        0.19810000      -2.74990000       0.16160000
C        1.24790000      -1.93530000       0.29550000
O        1.17060000      -0.57210000       0.26750000
N       -2.23070000      -2.86530000      -0.18790000
O       -1.97850000      -4.25770000      -0.12950000
H        0.91560000       1.72790000      -0.16590000
H       -0.75910000       1.85320000      -0.23360000
H       -2.13440000      -0.25270000      -0.22730000
H        0.33610000      -3.82010000       0.19730000
H        2.27140000      -2.25400000       0.44320000
H       -2.86150000      -4.61910000      -0.24920000
