21
Properties=species:S:1:pos:R:3 gdb_71486=T pbc="F F F"
C        0.01430000       1.50200000      -0.03840000
C        0.03020000      -0.00190000      -0.03680000
C        0.60920000      -0.95890000      -1.10970000
C        0.04130000      -1.89420000      -0.01930000
C        0.62300000      -0.94560000       1.08620000
C       -0.36130000      -0.94120000       2.23980000
C       -1.55100000      -0.95600000       1.63700000
C       -1.22930000      -0.96890000       0.14520000
C       -2.37990000      -0.98620000      -0.83840000
H        1.02980000       1.90820000      -0.10380000
H       -0.55470000       1.89050000      -0.89060000
H       -0.44660000       1.88210000       0.88020000
H        0.12570000      -0.96940000      -2.08990000
H        1.69770000      -0.95210000      -1.22330000
H        0.04780000      -2.98790000       0.00280000
H        1.69810000      -0.93790000       1.27330000
H       -0.12080000      -0.92400000       3.29360000
H       -2.54400000      -0.95350000       2.06680000
H       -3.01920000      -0.10570000      -0.70690000
H       -2.04180000      -0.99670000      -1.87860000
H       -3.00810000      -1.87140000      -0.68690000
