23
Properties=species:S:1:pos:R:3 gdb_116038=T pbc="F F F"
C        0.03050000       1.39160000       0.07160000
O       -0.04560000      -0.01010000      -0.02420000
C        0.64850000      -0.57070000      -1.12900000
C        2.16170000      -0.66980000      -0.89610000
C        2.86320000      -1.19390000      -2.15890000
C        2.12100000      -2.35080000      -2.77440000
C        0.87290000      -2.68370000      -2.44660000
C        0.03640000      -1.95420000      -1.42230000
C       -0.17500000      -2.81080000      -0.15850000
H        1.05220000       1.75230000       0.26170000
H       -0.34060000       1.88190000      -0.84260000
H       -0.60110000       1.69210000       0.91170000
H        0.47890000       0.06500000      -2.01580000
H        2.57130000       0.30560000      -0.61510000
H        2.34780000      -1.34750000      -0.05570000
H        2.95980000      -0.38610000      -2.90030000
H        3.89250000      -1.49210000      -1.92280000
H        2.65040000      -2.92800000      -3.52930000
H        0.40320000      -3.54240000      -2.92230000
H       -0.95830000      -1.77820000      -1.85490000
H        0.77430000      -3.03520000       0.33730000
H       -0.82180000      -2.29270000       0.55210000
H       -0.64000000      -3.76580000      -0.42410000
