13
Properties=species:S:1:pos:R:3 gdb_132695=T pbc="F F F"
O        0.04530000       1.34970000       0.06240000
C        0.05710000      -0.00010000       0.04590000
N        0.05230000      -0.59260000      -1.14310000
C        0.06400000      -1.93320000      -1.16570000
C        0.08030000      -2.68400000      -0.01490000
F        0.09210000      -4.03340000      -0.03610000
C        0.08530000      -2.05690000       1.23940000
O        0.10130000      -2.77930000       2.37740000
C        0.07330000      -0.67250000       1.27220000
H        0.03500000       1.62460000      -0.86480000
H        0.06020000      -2.42310000      -2.13500000
H        0.10760000      -3.71490000       2.13670000
H        0.07650000      -0.13420000       2.21050000
