20
Properties=species:S:1:pos:R:3 gdb_40167=T pbc="F F F"
C       -0.07690000       1.49990000       0.05380000
C        1.29180000       0.86900000      -0.08810000
C        0.06560000       0.00560000       0.00810000
C       -0.24460000      -0.80190000       1.27870000
O       -0.28030000      -2.21190000       1.03870000
C       -0.63970000      -2.54650000      -0.29450000
C        0.41590000      -1.98250000      -1.26520000
N       -0.33160000      -0.66340000      -1.22840000
C       -1.56890000      -1.48160000      -0.92180000
H       -0.33450000       1.96240000       1.00180000
H       -0.50130000       1.97710000      -0.82180000
H        1.77370000       0.93720000      -1.05690000
H        1.96480000       0.90260000       0.76230000
H        0.50580000      -0.63220000       2.05710000
H       -1.21610000      -0.48660000       1.68740000
H       -0.90540000      -3.60670000      -0.29430000
H        1.44880000      -1.94120000      -0.91260000
H        0.37050000      -2.40710000      -2.27260000
H       -2.02750000      -1.81930000      -1.85480000
H       -2.32270000      -0.99340000      -0.30020000
