15
Properties=species:S:1:pos:R:3 gdb_74824=T pbc="F F F"
N        0.05690000       1.33000000       0.08280000
C       -0.01970000      -0.04080000       0.01060000
N       -1.10960000      -0.72540000       0.00340000
C       -0.75430000      -2.10830000      -0.00530000
C        0.00410000      -2.64450000      -1.19050000
C        0.80470000      -2.16030000       0.00130000
N        1.18340000      -0.75900000      -0.04020000
C        1.60850000      -3.04250000       0.78480000
N        2.26130000      -3.75290000       1.42510000
H        0.80790000       1.74900000      -0.44560000
H       -0.83440000       1.78120000      -0.06400000
H       -1.36330000      -2.78560000       0.58290000
H       -0.01320000      -3.71760000      -1.34440000
H        0.05610000      -2.04070000      -2.09060000
H        1.91390000      -0.47230000       0.59910000
