18
Properties=species:S:1:pos:R:3 gdb_47661=T pbc="F F F"
O        0.81890000       0.28950000       0.44510000
C        0.08060000       1.17800000       0.12190000
C       -1.44040000       1.17680000       0.17340000
N       -1.96980000       2.39660000       0.76700000
C       -1.52070000       2.69920000       2.12280000
C       -0.13000000       3.22060000       2.48560000
C        1.06080000       3.35650000       1.89340000
C        1.54640000       2.96540000       0.52710000
O        0.49980000       2.41860000      -0.26990000
H       -1.84230000       1.07620000      -0.84110000
H       -1.75860000       0.30050000       0.74560000
H       -1.75650000       3.17620000       0.15550000
H       -2.21940000       3.44610000       2.52470000
H       -1.69540000       1.80110000       2.73390000
H       -0.15290000       3.56720000       3.52030000
H        1.85440000       3.79760000       2.49640000
H        1.92450000       3.83550000      -0.02010000
H        2.36640000       2.24140000       0.61470000
