11
Properties=species:S:1:pos:R:3 gdb_21978=T pbc="F F F"
O       -0.05550000      -0.00880000       0.00340000
N       -0.01360000       1.21680000       0.00690000
O        1.01060000       1.89450000       0.00250000
C       -1.26410000       1.91320000       0.01670000
C       -1.42910000       3.28510000       0.02190000
N       -2.76020000       3.47000000       0.03080000
N       -3.47490000       2.31810000       0.03170000
C       -2.56200000       1.35910000       0.02320000
H       -0.70990000       4.08640000       0.01990000
H       -3.25680000       4.34610000       0.03650000
H       -2.83990000       0.31770000       0.02170000
