15
Properties=species:S:1:pos:R:3 gdb_28965=T pbc="F F F"
C       -0.03860000       1.51990000      -0.00570000
C       -0.01130000       0.01840000      -0.00110000
C       -0.02760000      -0.73020000      -1.17590000
N       -0.00430000      -2.06340000      -1.20690000
C        0.03690000      -2.66520000      -0.01660000
N        0.05660000      -2.08100000       1.17720000
C        0.03250000      -0.73750000       1.18530000
C        0.05310000      -0.08570000       2.45770000
C        0.06940000       0.49390000       3.51230000
H        0.84540000       1.93400000       0.49060000
H       -0.07130000       1.90550000      -1.02790000
H       -0.91090000       1.90220000       0.53480000
H       -0.06120000      -0.22310000      -2.13910000
H        0.05640000      -3.75230000      -0.02140000
H        0.08430000       0.98840000       4.45250000
