16
Properties=species:S:1:pos:R:3 gdb_40334=T pbc="F F F"
C        0.11940000       1.46780000      -0.03870000
O        1.15970000       0.50220000      -0.20500000
C       -0.17620000       0.02940000       0.02580000
C       -0.42840000      -0.67080000       1.29280000
C       -0.34610000      -2.17840000       1.61670000
C       -0.02000000      -1.81380000       3.08510000
C       -0.10340000      -0.36350000       2.77830000
N       -1.33570000      -1.09590000       3.24820000
C       -1.63990000      -1.43010000       1.78820000
H        0.16230000       2.04790000       0.88210000
H       -0.14600000       2.03410000      -0.93060000
H       -0.64070000      -0.43300000      -0.84750000
H       -0.07070000      -2.99450000       0.96440000
H        0.45270000      -2.35120000       3.89770000
H        0.28530000       0.50750000       3.29160000
H       -2.63230000      -1.56510000       1.37640000
