19
Properties=species:S:1:pos:R:3 gdb_8477=T pbc="F F F"
C       -0.08500000       1.55040000       0.06500000
C        0.14060000       0.07200000       0.00610000
C        0.67400000      -0.73930000      -1.18310000
C        1.29630000      -1.75450000      -0.15820000
O        2.70880000      -1.74650000      -0.11560000
C        0.73790000      -0.89100000       0.98140000
C        1.34640000      -0.72750000       2.33760000
N       -0.73170000      -0.88510000       0.74580000
H        0.77580000       2.09580000      -0.33660000
H       -0.96660000       1.84070000      -0.51930000
H       -0.24420000       1.88640000       1.09580000
H       -0.07960000      -1.11950000      -1.87800000
H        1.47140000      -0.22320000      -1.72440000
H        0.89460000      -2.77580000      -0.19760000
H        3.03430000      -2.18670000      -0.90690000
H        2.43020000      -0.60970000       2.25290000
H        0.94110000       0.15130000       2.85120000
H        1.15100000      -1.60350000       2.96770000
H       -1.14420000      -0.36740000       1.52360000
