17
Properties=species:S:1:pos:R:3 gdb_32456=T pbc="F F F"
C       -0.02120000       1.34380000       0.04910000
O        0.01640000      -0.07120000       0.01630000
C        0.64510000      -0.59930000      -1.05850000
C        1.25210000       0.00400000      -2.11600000
O        1.75140000      -0.97750000      -2.96280000
C        1.42990000      -2.17080000      -2.42700000
N        1.89100000      -3.30430000      -3.07310000
C        0.74720000      -2.02510000      -1.25430000
N        0.25830000      -3.09980000      -0.46170000
H        0.99350000       1.76380000       0.07060000
H       -0.55110000       1.74400000      -0.82580000
H       -0.55260000       1.62690000       0.95900000
H        1.42000000       1.01810000      -2.42620000
H        1.79020000      -3.25980000      -4.08000000
H        1.43520000      -4.12620000      -2.69430000
H        0.76250000      -3.16730000       0.41870000
H       -0.71570000      -2.94880000      -0.21500000
