12
Properties=species:S:1:pos:R:3 gdb_128631=T pbc="F F F"
C       -0.03510000       1.39960000       0.04450000
O        0.02820000      -0.03730000      -0.04800000
C        0.62960000      -0.53790000      -1.10010000
N        1.15000000       0.18750000      -2.02580000
C        1.75310000      -0.46840000      -3.07820000
O        2.28230000       0.03730000      -4.01640000
O        1.73560000      -1.88150000      -3.02850000
N        1.14190000      -2.57870000      -1.97420000
N        0.61160000      -1.94820000      -1.04910000
H        0.97260000       1.81910000       0.06650000
H       -0.57550000       1.80740000      -0.81200000
H       -0.56430000       1.59990000       0.97440000
