18
Properties=species:S:1:pos:R:3 gdb_18432=T pbc="F F F"
C       -0.34510000       1.52090000      -0.00300000
C        0.01950000       0.04190000       0.00750000
C        1.17320000      -0.51220000      -0.90350000
C        1.76680000      -1.22250000       0.32020000
C        2.18360000      -0.21200000       1.36820000
C        2.78420000       1.05750000       1.06370000
C        3.34180000       2.09800000       0.82740000
C        0.71650000      -0.58720000       1.22510000
H        0.52540000       2.15240000       0.18420000
H       -0.77150000       1.80540000      -0.97170000
H       -1.09540000       1.74020000       0.76520000
H       -0.88020000      -0.54890000      -0.19690000
H        0.81590000      -1.19230000      -1.67900000
H        1.82640000       0.23680000      -1.36080000
H        2.16940000      -2.22820000       0.33650000
H        2.62220000      -0.68770000       2.24350000
H        3.81900000       3.02320000       0.61890000
H        0.20320000      -1.01650000       2.07870000
