17
Properties=species:S:1:pos:R:3 gdb_3319=T pbc="F F F"
C       -0.03340000       1.50030000      -0.14740000
C        0.02620000       0.01000000       0.20380000
C       -1.33470000      -0.65610000       0.12080000
O       -1.94210000      -0.59640000      -1.21070000
C       -2.20240000      -2.00080000      -1.16520000
C       -0.92870000      -2.78090000      -1.13300000
C       -1.47940000      -2.17970000       0.14750000
H        0.95850000       1.95870000      -0.09570000
H       -0.42270000       1.63810000      -1.16000000
H       -0.69010000       2.04440000       0.54060000
H        0.72560000      -0.50410000      -0.46450000
H        0.40590000      -0.12600000       1.22540000
H       -2.02770000      -0.18890000       0.83480000
H       -3.15860000      -2.35300000      -1.53400000
H       -1.03880000      -3.85940000      -1.19490000
H       -0.04130000      -2.38150000      -1.61460000
H       -1.72940000      -2.77350000       1.01600000
