20
Properties=species:S:1:pos:R:3 gdb_59375=T pbc="F F F"
C        0.16310000       1.53480000       0.10740000
C        0.13000000      -0.00170000       0.09880000
C        0.66430000      -0.56840000       1.42090000
C       -1.28100000      -0.48020000      -0.23560000
C       -1.62970000      -1.98660000      -0.20650000
C       -2.68020000      -1.57740000       0.85680000
O       -2.23910000      -0.21060000       0.83510000
C       -4.08450000      -1.72620000       0.45580000
N       -5.18690000      -1.85920000       0.13540000
H        1.17230000       1.90300000       0.31430000
H       -0.15570000       1.94690000      -0.85560000
H       -0.50580000       1.92890000       0.87940000
H        0.76910000      -0.35790000      -0.72300000
H        0.02150000      -0.26900000       2.25390000
H        0.72690000      -1.66120000       1.41280000
H        1.67090000      -0.18830000       1.61810000
H       -1.61830000       0.00870000      -1.15890000
H       -2.03280000      -2.39900000      -1.13050000
H       -0.85050000      -2.64290000       0.17970000
H       -2.55130000      -2.02850000       1.84730000
