15
Properties=species:S:1:pos:R:3 gdb_125016=T pbc="F F F"
C        0.09160000       1.53080000       0.00720000
C       -0.02150000       0.04080000      -0.00930000
C       -1.18560000      -0.66230000       0.05910000
N       -2.44380000      -0.10140000       0.19510000
C       -1.11980000      -2.11390000       0.04950000
O       -2.11710000      -2.82920000       0.10560000
C        0.24480000      -2.62410000      -0.04780000
N        1.33010000      -1.92650000      -0.12700000
O        1.19200000      -0.56310000      -0.10700000
H        1.08780000       1.82820000       0.34100000
H       -0.07150000       1.96130000      -0.98880000
H       -0.65400000       1.95590000       0.68590000
H       -2.62530000       0.74570000      -0.32130000
H       -3.15950000      -0.80900000       0.07120000
H        0.39550000      -3.69950000      -0.07290000
