19
Properties=species:S:1:pos:R:3 gdb_107040=T pbc="F F F"
C       -0.35720000       1.47770000      -0.24270000
C        0.09020000       0.03880000       0.04790000
C        0.94150000      -0.53910000      -1.05150000
O        0.23230000      -0.88510000      -2.28490000
C        0.89320000      -1.92090000      -1.54110000
C        2.25020000      -2.27540000      -2.16090000
O        2.14760000      -2.62420000      -3.53150000
C        3.05310000      -0.99850000      -1.93870000
C        2.33480000      -0.04760000      -1.34130000
H        0.49740000       2.15500000      -0.34150000
H       -0.92860000       1.51950000      -1.17440000
H       -0.98970000       1.85790000       0.56440000
H        0.65820000       0.00250000       0.98620000
H       -0.78860000      -0.60070000       0.18050000
H        0.24580000      -2.68970000      -1.12790000
H        2.70360000      -3.14000000      -1.66320000
H        1.59190000      -1.93870000      -3.92660000
H        4.06230000      -0.89590000      -2.32080000
H        2.66770000       0.95720000      -1.10980000
