16
Properties=species:S:1:pos:R:3 gdb_127751=T pbc="F F F"
C       -0.18660000       1.39880000       0.08340000
N       -0.06610000      -0.04570000       0.13090000
N       -0.07610000      -0.76170000      -0.99610000
N        0.05320000      -2.02700000      -0.66430000
C        0.13880000      -2.10570000       0.67990000
O        0.27170000      -3.27610000       1.33480000
C        0.06750000      -0.84310000       1.23370000
C        0.06800000      -0.35630000       2.64220000
O       -1.13530000       0.32350000       3.00240000
H        0.77700000       1.87490000       0.29160000
H       -0.51190000       1.66670000      -0.92140000
H       -0.91570000       1.72450000       0.82720000
H        0.29340000      -3.96910000       0.66260000
H        0.26600000      -1.21210000       3.30050000
H        0.86510000       0.37590000       2.81190000
H       -1.86330000      -0.29560000       2.87800000
