14
Properties=species:S:1:pos:R:3 gdb_128940=T pbc="F F F"
N       -0.01100000      -1.13310000       0.17540000
C        0.01480000       0.01490000       0.05590000
C        0.04750000       1.46770000      -0.12440000
N        1.35190000       2.00110000       0.23430000
C        1.53350000       3.37120000       0.11000000
N        2.74700000       3.89390000      -0.07660000
N        2.50520000       5.20630000      -0.08140000
N        1.25180000       5.58040000       0.07310000
C        0.59620000       4.42370000       0.19850000
H       -0.25400000       1.69460000      -1.16090000
H       -0.71430000       1.90750000       0.53020000
H        2.12910000       1.47290000      -0.13920000
H        3.24820000       5.87440000      -0.20310000
H       -0.47130000       4.40570000       0.34220000
