24
Properties=species:S:1:pos:R:3 gdb_22065=T pbc="F F F"
C       -0.02420000       1.53020000      -0.05440000
C        0.02380000      -0.00110000       0.03950000
C        0.85360000      -0.43900000       1.25470000
C       -1.40310000      -0.58030000       0.05600000
C       -1.47230000      -2.11440000      -0.07120000
C       -2.88540000      -2.63540000      -0.10090000
C       -3.75420000      -2.52720000       1.12480000
N       -3.27600000      -3.15010000      -1.20450000
O       -4.61370000      -3.58350000      -1.13040000
H        0.98320000       1.95590000      -0.11010000
H       -0.57800000       1.85920000      -0.93990000
H       -0.51700000       1.96140000       0.82550000
H        0.52370000      -0.37770000      -0.86490000
H        0.96940000      -1.52540000       1.30920000
H        1.85800000      -0.00440000       1.21710000
H        0.38450000      -0.10490000       2.18850000
H       -1.90770000      -0.25780000       0.97750000
H       -1.97250000      -0.14350000      -0.77390000
H       -0.96950000      -2.43130000      -0.99010000
H       -0.94590000      -2.58130000       0.77130000
H       -4.55540000      -1.79620000       0.96920000
H       -4.24330000      -3.48440000       1.32620000
H       -3.17440000      -2.22510000       1.99960000
H       -4.74750000      -3.96590000      -2.00370000
