14
Properties=species:S:1:pos:R:3 gdb_48460=T pbc="F F F"
N       -0.01100000       1.17030000      -0.70850000
C        0.01040000       0.04230000      -0.17000000
O        0.98890000      -0.65790000       0.48400000
C        0.08720000      -1.79140000       0.71230000
C       -1.05560000      -1.05320000      -0.01240000
C       -2.23520000      -0.61900000       0.84880000
O       -2.33910000      -0.90510000       2.01160000
C       -1.49510000      -1.63230000      -1.34670000
O       -2.63740000      -1.67810000      -1.71460000
H        0.88350000       1.65570000      -0.62460000
H        0.46800000      -2.69340000       0.22850000
H       -0.09740000      -1.94950000       1.77470000
H       -2.98180000      -0.00140000       0.31820000
H       -0.65990000      -2.01790000      -1.97090000
