16
Properties=species:S:1:pos:R:3 gdb_55337=T pbc="F F F"
O       -0.20570000      -0.02520000       0.07020000
C       -0.06330000       1.29430000      -0.11110000
O        0.98480000       1.82420000      -0.36070000
C       -1.37140000       2.06820000       0.04160000
N       -2.57310000       1.20890000       0.14230000
H       -3.15910000       1.17090000      -0.68450000
H       -1.15870000      -0.16330000       0.25340000
C       -3.10700000       1.99830000       1.27910000
C       -1.70440000       2.66270000       1.46480000
C       -0.92010000       2.16020000       2.57290000
C       -0.27960000       1.73350000       3.49580000
H       -1.40590000       2.84570000      -0.72780000
H       -3.87220000       2.72950000       0.99510000
H       -3.47140000       1.39390000       2.11260000
H       -1.72390000       3.75390000       1.47600000
H        0.30060000       1.35860000       4.30260000
