18
Properties=species:S:1:pos:R:3 gdb_82024=T pbc="F F F"
C       -0.09290000       1.70440000       0.24610000
C        0.00920000       0.18820000       0.11860000
C       -1.39720000      -0.38550000       0.06590000
O       -1.95890000      -0.72080000      -0.94540000
C        0.95380000      -0.41950000      -0.97110000
O        1.76800000       0.44900000      -1.72410000
C        1.68260000      -1.10850000       0.16990000
C        2.14590000      -0.13460000       1.17580000
N        0.73220000      -0.54880000       1.22510000
H        0.88890000       2.17690000       0.18520000
H       -0.70540000       2.11000000      -0.56590000
H       -0.55900000       1.97960000       1.19800000
H       -1.88420000      -0.46160000       1.06270000
H        0.40440000      -1.11510000      -1.61240000
H        1.28020000       0.71330000      -2.51060000
H        1.98800000      -2.14910000       0.17910000
H        2.71740000      -0.52440000       2.01230000
H        2.41400000       0.87230000       0.87490000
