14
Properties=species:S:1:pos:R:3 gdb_132435=T pbc="F F F"
C       -0.02060000       1.46640000       0.09610000
C       -0.00650000      -0.01710000      -0.06990000
N       -0.03880000      -0.59620000      -1.20930000
C       -0.02010000      -1.98440000      -1.21400000
C        0.02950000      -2.70400000      -0.07990000
F        0.04740000      -4.02770000      -0.08050000
C        0.06650000      -2.05480000       1.21920000
N        0.11370000      -2.65650000       2.32870000
O        0.04450000      -0.66040000       1.12980000
H        0.87570000       1.79820000       0.63000000
H       -0.06170000       1.93900000      -0.88410000
H       -0.88550000       1.77450000       0.69250000
H       -0.04760000      -2.47170000      -2.18200000
H        0.13210000      -1.99490000       3.10470000
