19
Properties=species:S:1:pos:R:3 gdb_81101=T pbc="F F F"
C       -0.12900000       1.53950000       0.07610000
C        0.03890000       0.02770000       0.04480000
C        1.19200000      -0.59430000      -0.83750000
C        2.16690000      -0.25960000       0.34190000
C        0.92150000      -0.67550000       1.18810000
C        0.74100000      -0.30140000       2.61820000
O        1.43440000       0.48940000       3.21080000
C        0.74970000      -2.13850000       0.74770000
C        0.94520000      -2.08340000      -0.57330000
H        0.80590000       2.07920000       0.24110000
H       -0.55180000       1.88330000      -0.87460000
H       -0.82550000       1.83440000       0.86830000
H       -0.93160000      -0.45530000      -0.09780000
H        1.37280000      -0.26110000      -1.85950000
H        3.05320000      -0.88810000       0.44490000
H        2.43200000       0.79390000       0.43630000
H       -0.12500000      -0.79090000       3.12420000
H        0.53030000      -2.97720000       1.39330000
H        0.93070000      -2.87520000      -1.30870000
