20
Properties=species:S:1:pos:R:3 gdb_82359=T pbc="F F F"
C       -0.00350000       1.59540000       0.02350000
C        0.09620000       0.07610000      -0.02210000
C        0.89100000      -0.47760000      -1.25510000
C        1.43900000      -1.82610000      -0.73800000
C        1.54640000      -1.63100000       0.76770000
C        2.17600000      -0.37610000       1.25250000
N        0.70950000      -0.49810000       1.19220000
C       -0.01310000      -0.61970000      -2.45280000
O        0.02950000       0.06330000      -3.44330000
H        0.98820000       2.05480000       0.08940000
H       -0.48980000       1.97530000      -0.88000000
H       -0.58550000       1.91430000       0.89220000
H       -0.91910000      -0.34290000      -0.05530000
H        1.69280000       0.21150000      -1.53130000
H        0.72580000      -2.63280000      -0.95010000
H        2.38770000      -2.09980000      -1.20880000
H        1.53370000      -2.51340000       1.40110000
H        2.57750000      -0.32510000       2.25990000
H        2.69020000       0.25720000       0.53400000
H       -0.78190000      -1.42320000      -2.34210000
