23
Properties=species:S:1:pos:R:3 gdb_105483=T pbc="F F F"
C        0.60420000       1.71670000       0.03150000
C        0.14110000       0.25870000      -0.06100000
C        0.61830000      -0.47590000      -1.32640000
C        2.13720000      -0.81660000      -1.32650000
C        1.80170000      -2.27690000      -0.92440000
C        0.31070000      -2.01750000      -1.26860000
C        0.10010000       0.18260000      -2.60030000
C       -1.40920000       0.33620000      -2.73210000
O        0.84180000       0.54460000      -3.48640000
H        1.69550000       1.79170000      -0.00450000
H        0.20980000       2.32130000      -0.79220000
H        0.26940000       2.17280000       0.96800000
H        0.50830000      -0.29670000       0.81120000
H       -0.95360000       0.21210000      -0.00570000
H        2.55800000      -0.72560000      -2.32890000
H        2.76190000      -0.24690000      -0.63440000
H        2.29870000      -3.06810000      -1.48980000
H        1.95620000      -2.47170000       0.13980000
H       -0.43640000      -2.32730000      -0.53230000
H        0.02760000      -2.42710000      -2.24250000
H       -1.93930000      -0.55890000      -2.39250000
H       -1.75370000       1.16950000      -2.10920000
H       -1.66110000       0.55160000      -3.77130000
