14
Properties=species:S:1:pos:R:3 gdb_31947=T pbc="F F F"
O        0.41710000       0.87850000      -0.73010000
C       -0.02440000       0.11140000       0.35820000
C       -1.44410000      -0.32070000       0.17830000
N       -2.14180000      -0.18460000      -0.91420000
C       -3.36010000      -0.75200000      -0.60940000
C       -3.33860000      -1.21260000       0.67510000
O       -2.09010000      -0.92970000       1.18270000
C       -4.33090000      -1.88260000       1.50010000
O       -4.16420000      -2.23750000       2.64370000
H       -0.19680000       0.72290000      -1.45990000
H        0.59610000      -0.78950000       0.50280000
H        0.06060000       0.69960000       1.28180000
H       -4.16820000      -0.79290000      -1.32350000
H       -5.28970000      -2.04400000       0.96220000
