20
Properties=species:S:1:pos:R:3 gdb_124599=T pbc="F F F"
C       -0.06900000       1.51740000       0.02390000
C        0.05170000      -0.00880000      -0.00010000
C        0.74340000      -0.52460000      -1.26510000
N        0.75640000      -0.48300000       1.19520000
N        2.01200000      -0.14970000       1.45840000
C        2.26770000      -0.77450000       2.60950000
C        1.12350000      -1.48370000       3.01190000
C        0.88430000      -2.33800000       4.21460000
N        0.17570000      -1.27840000       2.08950000
H        0.92150000       1.97920000      -0.00310000
H       -0.63750000       1.85980000      -0.84570000
H       -0.58380000       1.85390000       0.92790000
H       -0.93960000      -0.45940000       0.08890000
H        1.75980000      -0.12800000      -1.33320000
H        0.79700000      -1.61670000      -1.26280000
H        0.18490000      -0.20750000      -2.15060000
H        3.23330000      -0.68950000       3.08330000
H        1.01580000      -1.77090000       5.14240000
H       -0.13420000      -2.73100000       4.19540000
H        1.57820000      -3.18460000       4.25010000
