20
Properties=species:S:1:pos:R:3 gdb_37231=T pbc="F F F"
C       -0.11170000       1.19590000       0.00360000
C        1.26750000       0.65850000       0.04300000
C        1.64390000       0.18550000       1.42100000
C        0.36260000      -0.65920000       1.37400000
N        0.04840000      -0.27010000      -0.01670000
C        1.69790000      -1.32030000       1.44100000
C        2.27620000      -2.34540000       0.45540000
C        2.35860000      -3.35450000       1.64020000
C        2.12100000      -2.18280000       2.63960000
H       -0.53150000       1.66660000       0.88980000
H       -0.46750000       1.59350000      -0.94270000
H        1.93870000       0.74180000      -0.80670000
H        2.07110000       0.79080000       2.21390000
H       -0.42570000      -0.80190000       2.10620000
H        1.64110000      -2.61330000      -0.39090000
H        3.26370000      -2.05880000       0.07990000
H        1.52890000      -4.06540000       1.63500000
H        3.29140000      -3.91090000       1.75130000
H        3.05010000      -1.83120000       3.10020000
H        1.38220000      -2.34030000       3.43060000
