19
Properties=species:S:1:pos:R:3 gdb_96677=T pbc="F F F"
C       -0.38770000       1.62420000      -0.42460000
N        0.02170000       0.25270000      -0.20810000
H        0.95280000      -0.01400000      -0.47610000
C       -0.78970000      -0.69850000       0.32740000
N       -1.99170000      -0.50650000       0.74530000
C       -0.18350000      -2.08920000       0.39520000
C       -0.77790000      -3.01980000       1.47160000
C       -2.09760000      -3.71500000       1.10400000
O       -3.12490000      -2.91630000       0.82560000
O       -2.19310000      -4.91770000       1.08510000
H        0.42910000       2.16650000      -0.90290000
H       -1.26670000       1.68150000      -1.07860000
H       -0.62640000       2.12960000       0.51980000
H       -2.32060000       0.44960000       0.64360000
H       -2.83740000      -1.95660000       0.87030000
H       -0.27500000      -2.55050000      -0.59660000
H        0.89200000      -1.98460000       0.58090000
H       -0.06800000      -3.82180000       1.67840000
H       -0.92470000      -2.45030000       2.39610000
