19
Properties=species:S:1:pos:R:3 gdb_82579=T pbc="F F F"
O       -0.02310000       1.38000000      -0.02220000
C       -0.17180000       0.00410000      -0.17050000
C       -0.46550000      -0.87970000       0.99130000
O       -1.25840000      -0.14170000       1.93420000
C       -2.36520000      -0.08320000       0.98560000
C       -3.68770000      -0.77130000       1.38220000
C       -4.44170000       0.40490000       0.69930000
C       -3.13120000       1.23870000       0.77620000
C       -1.51020000      -0.71760000      -0.10620000
H       -0.25230000       1.57280000       0.89760000
H        0.50970000      -0.40130000      -0.91340000
H        0.11180000      -1.71850000       1.36360000
H       -3.86000000      -1.78780000       1.01990000
H       -3.80350000      -0.75440000       2.46950000
H       -4.72010000       0.17220000      -0.33160000
H       -5.31760000       0.80100000       1.21550000
H       -3.09550000       1.84220000       1.68870000
H       -2.84350000       1.85550000      -0.07610000
H       -1.86210000      -1.40740000      -0.86270000
