21
Properties=species:S:1:pos:R:3 gdb_117562=T pbc="F F F"
C        0.07540000       1.46980000       0.06190000
C       -0.14970000      -0.03030000      -0.09700000
N        0.82860000      -0.60010000      -1.02660000
C        0.70080000      -2.03370000      -1.25800000
C       -0.62750000      -2.41430000      -1.81170000
N       -1.66880000      -2.65290000      -2.25480000
C        1.80200000      -2.54900000      -2.16750000
C        3.16180000      -2.83160000      -1.59210000
C        2.28090000      -3.97160000      -2.03830000
H        1.09480000       1.67610000       0.40020000
H       -0.07950000       1.99390000      -0.88820000
H       -0.62690000       1.88910000       0.78780000
H       -0.01350000      -0.53100000       0.87050000
H       -1.19070000      -0.22230000      -0.40690000
H        0.77990000      -0.11100000      -1.91630000
H        0.79150000      -2.53220000      -0.28370000
H        1.76500000      -2.13860000      -3.17300000
H        4.02980000      -2.58160000      -2.19120000
H        3.29880000      -2.67580000      -0.52740000
H        1.82470000      -4.59280000      -1.27440000
H        2.53880000      -4.50610000      -2.94510000
