17
Properties=species:S:1:pos:R:3 gdb_97340=T pbc="F F F"
C        0.11540000       1.24670000       0.15940000
N        0.06960000      -0.18580000      -0.06070000
C       -1.05960000      -0.72910000      -0.04560000
O       -1.13560000      -2.08400000      -0.26050000
C       -2.37660000      -2.66320000      -0.17830000
O       -3.39310000      -2.08400000       0.10440000
N       -2.27650000      -3.98980000      -0.53880000
C       -1.43540000      -4.96350000       0.13260000
C       -2.93250000      -5.04380000       0.20250000
H        0.58640000       1.72930000      -0.70390000
H       -0.87040000       1.70810000       0.32420000
H        0.74920000       1.45810000       1.02750000
H       -2.03080000      -0.25730000       0.11910000
H       -0.88200000      -5.63240000      -0.51930000
H       -0.90230000      -4.63780000       1.02100000
H       -3.41590000      -4.76620000       1.13490000
H       -3.46480000      -5.77610000      -0.39660000
