17
Properties=species:S:1:pos:R:3 gdb_123603=T pbc="F F F"
C       -0.01050000       1.48010000       0.09120000
C        1.30770000       0.75450000       0.05220000
C        1.99160000       0.40740000       1.37700000
N        1.01000000      -0.46940000       1.99910000
N        1.01480000      -1.05170000       3.20700000
C       -0.11900000      -1.75930000       3.20900000
C       -0.85160000      -1.62040000       2.00520000
C       -0.07730000      -0.76710000       1.24370000
C       -0.00210000      -0.03170000      -0.03630000
H       -0.35030000       1.90610000       1.03000000
H       -0.28120000       2.05220000      -0.78980000
H        1.93770000       0.87300000      -0.82010000
H        2.93860000      -0.12140000       1.22180000
H        2.18650000       1.28090000       2.00720000
H       -0.37540000      -2.34810000       4.07810000
H       -1.79790000      -2.06700000       1.74820000
H       -0.33210000      -0.49490000      -0.95750000
