21
Properties=species:S:1:pos:R:3 gdb_119891=T pbc="F F F"
C        0.00210000       1.46100000      -0.07180000
O       -0.06160000       0.05710000      -0.01060000
C        0.66240000      -0.56860000      -1.04050000
C        0.60450000      -2.06460000      -0.90960000
C        0.05070000      -2.69700000       0.12330000
C       -0.01110000      -4.19960000       0.19230000
C        0.27770000      -4.80250000      -1.18340000
O        1.42390000      -4.20590000      -1.76870000
C        1.22940000      -2.83620000      -2.04950000
H        1.03650000       1.82860000       0.02200000
H       -0.41410000       1.84870000      -1.01540000
H       -0.58810000       1.85110000       0.76070000
H        0.26740000      -0.26430000      -2.02940000
H        1.71790000      -0.23470000      -1.02560000
H       -0.37330000      -2.11980000       0.93780000
H        0.71150000      -4.57650000       0.92960000
H       -1.00000000      -4.52730000       0.53820000
H        0.48990000      -5.87340000      -1.12000000
H       -0.59770000      -4.66670000      -1.84050000
H        0.61410000      -2.71170000      -2.96160000
H        2.22270000      -2.43300000      -2.28590000
