17
Properties=species:S:1:pos:R:3 gdb_32338=T pbc="F F F"
C       -0.15960000       1.65430000       0.14000000
C       -0.00210000       0.14820000      -0.11960000
C       -1.31640000      -0.58140000      -0.11320000
C       -1.82270000      -1.20230000      -1.19140000
O       -3.01680000      -1.85460000      -1.18000000
C       -3.76060000      -1.89050000      -0.01470000
N       -4.88170000      -2.47900000       0.05960000
C       -3.15340000      -1.19840000       1.12440000
N       -2.02430000      -0.58780000       1.09390000
H        0.81750000       2.14330000       0.19390000
H       -0.73730000       2.13200000      -0.65780000
H       -0.68210000       1.82450000       1.08520000
H        0.50260000      -0.02100000      -1.07710000
H        0.63850000      -0.28530000       0.65840000
H       -1.34840000      -1.25360000      -2.16330000
H       -5.13590000      -2.90140000      -0.83430000
H       -3.72650000      -1.22480000       2.04820000
