16
Properties=species:S:1:pos:R:3 gdb_21229=T pbc="F F F"
C       -0.43290000       0.79520000       1.03320000
N        0.20530000       0.28160000      -0.17550000
C        1.30640000      -0.63300000       0.08020000
C        0.93850000      -1.97010000       0.67750000
N       -0.27050000      -2.49800000       0.54910000
N       -0.13540000      -3.68770000       1.18580000
C        1.11790000      -3.82180000       1.65930000
N        1.82960000      -2.75450000       1.35860000
H        0.29300000       1.39220000       1.59730000
H       -1.25650000       1.45740000       0.75010000
H       -0.83140000       0.01910000       1.70580000
H       -0.48900000      -0.19320000      -0.74320000
H        1.83900000      -0.81330000      -0.86310000
H        2.02950000      -0.15100000       0.74740000
H       -0.92170000      -4.31190000       1.25900000
H        1.45520000      -4.69070000       2.20490000
