23
Properties=species:S:1:pos:R:3 gdb_93698=T pbc="F F F"
C       -0.03870000       1.50410000       0.01060000
C        0.03080000      -0.00700000       0.00190000
O        0.69370000      -0.41740000      -1.17200000
C        0.80200000      -1.83170000      -1.24610000
C        1.54830000      -2.40790000      -0.02610000
C        1.45600000      -3.93790000      -0.03340000
C        3.01570000      -1.95200000      -0.03840000
C        0.82660000      -1.84490000       1.21460000
O        0.71700000      -0.42980000       1.15780000
H        0.97350000       1.91560000       0.00290000
H       -0.57390000       1.85780000      -0.87330000
H       -0.55650000       1.84830000       0.90870000
H       -0.98200000      -0.45970000       0.00960000
H       -0.20490000      -2.27970000      -1.31000000
H        1.33120000      -2.05480000      -2.17780000
H        1.93880000      -4.35530000      -0.92380000
H        1.95650000      -4.36470000       0.84280000
H        0.41530000      -4.28100000      -0.02480000
H        3.08290000      -0.86250000      -0.03340000
H        3.54940000      -2.33280000       0.83930000
H        3.53170000      -2.32360000      -0.93060000
H       -0.17890000      -2.29360000       1.29380000
H        1.37440000      -2.07780000       2.13310000
