17
Properties=species:S:1:pos:R:3 gdb_38969=T pbc="F F F"
C       -0.18750000       1.09420000      -0.00530000
O        0.91660000       1.84710000       0.45900000
C        2.01790000       0.96830000       0.64050000
C        2.39560000       0.69790000       2.11900000
C        1.87070000      -0.69020000       2.42570000
O        0.46440000      -0.82160000       2.19060000
C        1.36830000      -1.33010000       1.19970000
C        1.53470000      -0.38160000       0.02230000
O        0.33160000      -0.05190000      -0.65000000
H       -0.83650000       0.80770000       0.83200000
H       -0.73900000       1.68780000      -0.74200000
H        2.86610000       1.39440000       0.09640000
H        3.48320000       0.72290000       2.24950000
H        1.96220000       1.45920000       2.77340000
H        2.25400000      -1.26130000       3.26770000
H        1.34040000      -2.40610000       1.04960000
H        2.22750000      -0.79780000      -0.71530000
