20
Properties=species:S:1:pos:R:3 gdb_110423=T pbc="F F F"
C       -0.02720000       1.27250000       0.23240000
O       -0.10800000      -0.04290000      -0.26920000
C       -1.37570000      -0.62500000      -0.10150000
C       -1.34480000      -2.06320000      -0.56840000
N       -0.97710000      -2.59140000       0.79610000
C       -1.62230000      -1.25530000       1.29150000
C       -3.01630000      -1.89610000       1.20540000
C       -2.34500000      -2.84940000       0.22280000
C       -2.79960000      -4.22090000      -0.17040000
H        0.97920000       1.63830000       0.01640000
H       -0.75990000       1.93670000      -0.25290000
H       -0.19130000       1.31650000       1.31930000
H       -2.15910000       0.04710000      -0.49060000
H       -0.87750000      -2.44540000      -1.46900000
H       -1.24850000      -0.78610000       2.19950000
H       -3.28350000      -2.42060000       2.12760000
H       -3.85860000      -1.27680000       0.87580000
H       -3.66270000      -4.17170000      -0.84390000
H       -1.99790000      -4.76090000      -0.68310000
H       -3.08810000      -4.80240000       0.71160000
