17
Properties=species:S:1:pos:R:3 gdb_34494=T pbc="F F F"
C        0.04530000      -1.18970000       0.04230000
C       -0.02330000       0.01360000       0.02870000
C       -0.04470000       1.42760000       0.02280000
C       -1.12280000       2.21520000      -0.12180000
C       -0.75410000       3.64950000      -0.10030000
C       -1.46580000       4.68020000      -0.87700000
O       -1.64680000       4.57900000       0.53480000
C        0.73320000       3.70850000       0.26270000
C        1.23370000       2.24690000       0.15570000
H        0.08880000      -2.25050000       0.05330000
H       -2.14260000       1.87540000      -0.25010000
H       -0.91720000       5.55760000      -1.22020000
H       -2.33040000       4.40970000      -1.48320000
H        1.29330000       4.39220000      -0.37920000
H        0.81890000       4.07740000       1.28890000
H        1.82310000       1.93140000       1.02220000
H        1.86930000       2.09340000      -0.72430000
