23
Properties=species:S:1:pos:R:3 gdb_112716=T pbc="F F F"
C       -0.72270000       0.76360000      -0.02180000
O       -0.12600000      -0.49660000      -0.24660000
C        0.90300000      -0.49410000      -1.24940000
C        1.68080000      -1.82240000      -1.10240000
C        1.21470000      -2.74620000      -2.26470000
C        1.01130000      -4.20700000      -1.87080000
C       -0.05380000      -2.04680000      -2.81960000
O       -1.23510000      -2.38320000      -2.10640000
C        0.29700000      -0.55820000      -2.66540000
H        0.02720000       1.50580000       0.29020000
H       -1.24320000       1.14980000      -0.90930000
H       -1.45100000       0.63600000       0.78260000
H        1.53610000       0.38960000      -1.09370000
H        2.76020000      -1.65210000      -1.13310000
H        1.44970000      -2.25000000      -0.12260000
H        1.96810000      -2.69940000      -3.06240000
H        0.21190000      -4.29590000      -1.13050000
H        0.72850000      -4.81550000      -2.73630000
H        1.92700000      -4.63230000      -1.44660000
H       -0.24400000      -2.33150000      -3.85920000
H       -1.17990000      -1.94050000      -1.24760000
H       -0.56820000       0.09610000      -2.80120000
H        1.05670000      -0.27050000      -3.40190000
