15
Properties=species:S:1:pos:R:3 gdb_13445=T pbc="F F F"
O       -0.29760000       1.13960000      -0.29660000
C       -0.13940000      -0.21840000      -0.06110000
C       -0.34100000      -0.62270000       1.37210000
O       -0.72920000       0.37590000       2.25160000
C       -1.34630000      -1.07070000       0.30750000
N       -2.65980000      -0.50040000       0.35480000
C       -3.22270000       0.30770000      -0.57070000
O       -2.67280000       0.76490000      -1.56050000
H       -1.00870000       1.22400000      -0.96140000
H        0.62980000      -0.71200000      -0.65280000
H        0.29410000      -1.37720000       1.82560000
H       -0.67980000       1.19970000       1.74080000
H       -1.31450000      -2.11040000      -0.01140000
H       -3.21770000      -0.71230000       1.16930000
H       -4.27820000       0.53340000      -0.33120000
