22
Properties=species:S:1:pos:R:3 gdb_107175=T pbc="F F F"
C       -0.25720000       1.49890000       0.02480000
C        0.02770000      -0.00970000       0.03470000
C        0.78100000      -0.47100000      -1.18140000
C        0.14470000      -0.84380000      -2.49610000
C        0.96740000      -1.87190000      -1.75530000
C        2.49330000      -1.60300000      -1.88260000
C        2.32040000      -0.23500000      -1.34540000
N        2.72290000      -0.43150000      -2.75190000
C        4.13770000      -0.16000000      -2.98330000
H        0.67200000       2.07630000      -0.03120000
H       -0.86910000       1.77520000      -0.83970000
H       -0.78750000       1.80820000       0.93100000
H        0.59560000      -0.26850000       0.93950000
H       -0.91700000      -0.56380000       0.10010000
H       -0.92730000      -1.01060000      -2.43800000
H        0.50180000      -0.42730000      -3.42890000
H        0.55550000      -2.80630000      -1.39490000
H        3.28360000      -2.32290000      -1.71010000
H        2.94580000       0.33160000      -0.66560000
H        4.78940000      -0.41520000      -2.12960000
H        4.47510000      -0.73360000      -3.85250000
H        4.26690000       0.90460000      -3.20340000
