19
Properties=species:S:1:pos:R:3 gdb_71285=T pbc="F F F"
O       -0.00400000       1.34870000      -0.05370000
C        0.02650000      -0.06010000       0.02110000
C        0.31480000      -0.78170000      -1.35510000
C       -1.06140000      -1.44500000      -1.26740000
C       -1.29120000      -2.12480000       0.06580000
C       -0.22950000      -2.80480000       0.93210000
C        0.73450000      -1.84040000       1.57690000
C        0.84560000      -0.57640000       1.17530000
C       -1.40490000      -0.63140000      -0.02490000
H        0.90280000       1.66050000      -0.14920000
H        0.34900000      -0.03100000      -2.14890000
H        1.19650000      -1.42790000      -1.41680000
H       -1.69030000      -1.67840000      -2.11850000
H       -2.25630000      -2.62400000       0.09610000
H       -0.73090000      -3.38020000       1.72140000
H        0.32370000      -3.55110000       0.34340000
H        1.33510000      -2.21630000       2.40110000
H        1.53270000       0.11590000       1.65640000
H       -2.28640000      -0.05970000       0.23550000
