19
Properties=species:S:1:pos:R:3 gdb_52677=T pbc="F F F"
C        0.20940000       1.41840000       0.11970000
C        0.08180000      -0.03000000       0.03940000
C       -0.03220000      -1.22950000       0.00460000
C       -0.17600000      -2.69220000      -0.10540000
O       -1.53090000      -3.07920000      -0.28210000
C        0.67380000      -3.20100000      -1.26300000
O        0.23170000      -2.68790000      -2.49480000
C        2.13610000      -3.49370000      -1.07730000
C        1.13710000      -4.61890000      -1.29200000
H        1.20710000       1.74900000      -0.18930000
H       -0.52100000       1.91770000      -0.52620000
H        0.04380000       1.77310000       1.14280000
H        0.15540000      -3.16510000       0.82620000
H       -1.73790000      -2.87790000      -1.20430000
H        0.38880000      -1.73430000      -2.47030000
H        2.79140000      -3.24770000      -1.90520000
H        2.57370000      -3.36440000      -0.09300000
H        0.88350000      -5.26020000      -0.45530000
H        1.13790000      -5.10710000      -2.25940000
