21
Properties=species:S:1:pos:R:3 gdb_71246=T pbc="F F F"
C       -0.03320000       1.49810000       0.11120000
C        0.01430000      -0.00840000       0.04210000
C        0.92010000      -0.76450000      -0.97550000
C        0.83260000      -1.90820000       0.04280000
C       -0.69010000      -2.13850000       0.44930000
C       -0.31910000      -1.75270000       1.90940000
C        0.72460000      -0.87870000       1.19860000
O        1.86640000      -0.35790000       1.79710000
C       -1.29510000      -0.81830000      -0.07470000
H        0.96340000       1.91440000       0.29870000
H       -0.39600000       1.92820000      -0.82960000
H       -0.70250000       1.84510000       0.90810000
H        0.53770000      -0.90370000      -1.99210000
H        1.93310000      -0.35480000      -1.00990000
H        1.50320000      -2.76560000       0.07690000
H       -1.20230000      -3.07260000       0.22660000
H       -1.09600000      -1.29950000       2.53540000
H        0.17410000      -2.56570000       2.45020000
H        1.61790000       0.42940000       2.29430000
H       -2.10330000      -0.44960000       0.56560000
H       -1.66480000      -0.86630000      -1.10400000
