16
Properties=species:S:1:pos:R:3 gdb_65833=T pbc="F F F"
C        0.07080000       1.43750000       0.09040000
C       -0.04330000      -0.08700000      -0.03050000
C        0.75430000      -0.64080000      -1.25080000
N        2.01590000      -0.95040000      -0.61370000
C        1.86130000      -1.15710000       0.74130000
O        2.64200000      -1.64070000       1.51040000
O        0.63010000      -0.68370000       1.10920000
C       -1.43690000      -0.51870000      -0.04060000
C       -2.59020000      -0.85110000      -0.07780000
H        1.12310000       1.73180000       0.04920000
H       -0.47020000       1.92440000      -0.72560000
H       -0.35410000       1.76600000       1.04080000
H        0.26170000      -1.52340000      -1.67580000
H        0.85560000       0.11850000      -2.03110000
H        2.73370000      -1.48150000      -1.07940000
H       -3.60890000      -1.15190000      -0.09790000
