16
Properties=species:S:1:pos:R:3 gdb_50974=T pbc="F F F"
O       -0.79020000       0.99270000       0.26500000
C        0.01390000       1.23860000      -0.59560000
C        1.33130000       1.94810000      -0.33470000
C        1.55360000       3.17080000      -1.26250000
N        0.55350000       4.21610000      -1.04950000
C       -0.59020000       4.26570000      -1.78220000
O       -0.89390000       3.45330000      -2.63180000
C        2.89580000       3.72050000      -1.09040000
C        3.99620000       4.16730000      -0.90990000
H       -0.15450000       0.94030000      -1.65170000
H        1.37620000       2.24470000       0.71630000
H        2.14110000       1.23170000      -0.52710000
H        1.41850000       2.84220000      -2.29990000
H        0.74020000       4.92790000      -0.36110000
H       -1.22000000       5.13560000      -1.51790000
H        4.97370000       4.56000000      -0.77220000
