18
Properties=species:S:1:pos:R:3 gdb_26158=T pbc="F F F"
C       -0.00880000       1.53840000      -0.17500000
C        0.00060000       0.00590000      -0.09270000
O        0.67240000      -0.56090000      -1.21090000
C        0.62870000      -0.47840000       1.18280000
C        0.10050000      -1.02280000       2.30770000
C       -1.26530000      -1.37000000       2.77200000
O        1.14690000      -1.28700000       3.16460000
C        2.24850000      -0.88910000       2.49430000
N        2.01680000      -0.40100000       1.32300000
H        1.00990000       1.92710000      -0.07870000
H       -0.41460000       1.85260000      -1.14040000
H       -0.61750000       1.97330000       0.62470000
H       -1.03050000      -0.36230000      -0.14850000
H        1.61670000      -0.48410000      -1.02410000
H       -1.98740000      -1.18190000       1.97450000
H       -1.33270000      -2.42650000       3.05340000
H       -1.55970000      -0.77610000       3.64480000
H        3.19620000      -1.01780000       2.99360000
