22
Properties=species:S:1:pos:R:3 gdb_9846=T pbc="F F F"
C       -0.17090000       1.53480000      -0.07590000
C       -0.08490000       0.00710000      -0.14470000
C        0.87070000      -0.53080000      -1.22850000
C        2.33780000      -0.15260000      -0.97430000
C        0.72560000      -2.03820000      -1.36840000
O        1.08640000      -2.66750000      -0.16180000
C       -0.39200000      -2.61260000      -2.19650000
C        1.05190000      -2.70530000      -2.67640000
H        0.78430000       1.98890000       0.20490000
H       -0.46880000       1.96090000      -1.04130000
H       -0.91180000       1.84960000       0.66590000
H        0.22250000      -0.39550000       0.82690000
H       -1.08590000      -0.39850000      -0.33780000
H        0.56480000      -0.09970000      -2.19230000
H        2.68170000      -0.57150000      -0.02420000
H        2.98300000      -0.54650000      -1.76620000
H        2.47380000       0.93180000      -0.94280000
H        1.02740000      -3.62040000      -0.27720000
H       -0.86420000      -3.52600000      -1.84690000
H       -1.06680000      -1.93760000      -2.71310000
H        1.35860000      -2.09200000      -3.51760000
H        1.53020000      -3.68000000      -2.64480000
