17
Properties=species:S:1:pos:R:3 gdb_91415=T pbc="F F F"
O       -0.08320000       1.43890000      -0.06120000
C       -0.02270000       0.03940000      -0.02490000
C       -1.42460000      -0.60760000       0.07190000
C       -1.40690000      -1.97520000      -0.60950000
C       -0.08960000      -2.75530000      -0.38560000
C        0.36820000      -1.93220000      -1.60460000
O       -1.02730000      -1.77120000      -2.00980000
C        0.74730000      -0.50590000      -1.23380000
O        1.50570000       0.19730000      -1.86020000
H        0.60260000       1.71000000      -0.69110000
H        0.56860000      -0.28930000       0.85110000
H       -1.74710000      -0.68640000       1.11540000
H       -2.13480000       0.03760000      -0.45350000
H       -2.35680000      -2.50770000      -0.52340000
H        0.44110000      -2.64980000       0.56210000
H       -0.19390000      -3.80980000      -0.64410000
H        1.00470000      -2.36060000      -2.38010000
