13
Properties=species:S:1:pos:R:3 gdb_28139=T pbc="F F F"
N        0.02930000       1.31380000       0.15170000
C       -0.05370000      -0.04710000       0.05080000
N       -1.13930000      -0.77570000       0.02180000
C       -0.60100000      -2.03860000       0.01010000
C        0.75240000      -2.03680000       0.02090000
O        1.14820000      -0.71510000       0.04910000
C        1.19800000      -3.38390000      -0.02120000
C        0.02810000      -4.09970000      -0.04900000
O       -1.09360000      -3.28880000      -0.03220000
H        0.86160000       1.72240000      -0.24700000
H       -0.82530000       1.78630000      -0.10200000
H        2.19410000      -3.79450000      -0.02580000
H       -0.17530000      -5.15620000      -0.07530000
