18
Properties=species:S:1:pos:R:3 gdb_109365=T pbc="F F F"
C        0.03050000       1.40710000      -0.02310000
N       -0.07710000      -0.02720000      -0.16610000
C       -1.26780000      -0.66450000      -0.03010000
N       -2.37680000      -0.02610000       0.09120000
C       -3.58060000      -0.83520000       0.17610000
C       -3.44840000      -2.14430000      -0.57930000
O       -2.28910000      -2.87280000      -0.12810000
C       -1.14710000      -2.16570000      -0.00360000
N       -0.01620000      -2.70870000       0.18950000
H        1.05250000       1.71110000      -0.25830000
H       -0.65860000       1.90300000      -0.71250000
H       -0.22160000       1.74550000       0.99090000
H        0.73270000      -0.61560000      -0.04240000
H       -3.82920000      -1.03490000       1.22960000
H       -4.42320000      -0.26840000      -0.23820000
H       -4.29510000      -2.81460000      -0.41520000
H       -3.34790000      -1.95690000      -1.65620000
H       -0.10030000      -3.72640000       0.20650000
