16
Properties=species:S:1:pos:R:3 gdb_30333=T pbc="F F F"
O       -0.09350000       1.45100000      -0.12890000
C       -0.00200000       0.02960000       0.00450000
C        0.49380000      -0.44940000       1.42030000
O       -0.63250000      -0.93050000       2.19360000
C       -1.64590000      -1.05430000       1.28880000
C       -1.34970000      -0.58270000       0.04230000
N       -2.46830000      -0.74170000      -0.74090000
C       -3.45090000      -1.31710000       0.02580000
C       -2.97410000      -1.53510000       1.31090000
H        0.79840000       1.79350000      -0.25500000
H        0.66740000      -0.36230000      -0.77590000
H        1.20820000      -1.27420000       1.31700000
H        0.96030000       0.37430000       1.96740000
H       -2.57630000      -0.44720000      -1.69470000
H       -4.41580000      -1.54470000      -0.39870000
H       -3.52090000      -1.97820000       2.12690000
