19
Properties=species:S:1:pos:R:3 gdb_70277=T pbc="F F F"
C        0.55500000       1.24740000      -0.20550000
C        0.02900000      -0.15860000      -0.04120000
C       -0.84680000      -0.52040000       1.14920000
C        0.53270000      -1.10550000       1.01050000
O        0.58890000      -2.41350000       0.48980000
C        0.59000000      -2.33030000      -0.92190000
C       -0.17290000      -1.02530000      -1.29210000
C        2.00390000      -2.27440000      -1.48980000
O        2.99750000      -2.09120000      -0.84010000
H        1.48880000       1.25700000      -0.77910000
H       -0.16770000       1.88580000      -0.72690000
H        0.75760000       1.70700000       0.76680000
H       -1.00300000       0.24620000       1.90200000
H       -1.68560000      -1.19180000       0.99590000
H        1.33620000      -0.86300000       1.69750000
H        0.09960000      -3.22590000      -1.32380000
H       -1.22720000      -1.23410000      -1.49480000
H        0.24320000      -0.54420000      -2.18340000
H        2.04260000      -2.39220000      -2.60020000
