21
Properties=species:S:1:pos:R:3 gdb_101594=T pbc="F F F"
C       -0.04070000       1.39270000      -0.08020000
N       -0.04930000      -0.04900000       0.07780000
C        0.65390000      -0.63710000       1.11240000
O        1.14950000       0.00000000       2.02940000
N        0.74770000      -2.00910000       1.01680000
C        1.25090000      -2.78950000       2.14210000
C        0.23080000      -2.91260000       3.28320000
C        1.69110000      -4.14880000       1.60540000
O        0.55550000      -4.75970000       0.99620000
H        0.75530000       1.74340000      -0.75150000
H       -1.00360000       1.73680000      -0.47000000
H        0.12760000       1.83020000       0.90400000
H       -0.18250000      -0.59810000      -0.75640000
H        0.09010000      -2.50250000       0.43110000
H        2.13500000      -2.26550000       2.51620000
H       -0.65900000      -3.45460000       2.95080000
H        0.66400000      -3.45370000       4.13150000
H       -0.05880000      -1.91630000       3.62340000
H        2.49860000      -4.00780000       0.87290000
H        2.07580000      -4.76270000       2.43310000
H        0.83390000      -5.58440000       0.58920000
