21
Properties=species:S:1:pos:R:3 gdb_63955=T pbc="F F F"
C       -0.19570000       1.57710000      -0.04340000
C        0.00840000       0.06190000      -0.02650000
O       -1.25310000      -0.58280000       0.14790000
C        0.77950000      -0.50160000      -1.26770000
C        1.92410000      -1.28650000      -0.58940000
C        2.98530000      -0.30200000      -0.04130000
C        2.24880000       0.24570000       1.21870000
C        0.89730000      -0.49460000       1.11750000
O        1.29600000      -1.77220000       0.60380000
H        0.73460000       2.12430000      -0.21730000
H       -0.88720000       1.85070000      -0.84940000
H       -0.63390000       1.91810000       0.89980000
H       -1.80820000      -0.35200000      -0.60450000
H        0.12480000      -1.17880000      -1.82170000
H        1.13590000       0.27790000      -1.94690000
H        2.31770000      -2.12500000      -1.16420000
H        3.90240000      -0.82970000       0.22960000
H        3.24640000       0.47710000      -0.76280000
H        2.75830000      -0.06060000       2.13470000
H        2.16020000       1.33310000       1.23710000
H        0.34950000      -0.62210000       2.05060000
