18
Properties=species:S:1:pos:R:3 gdb_11994=T pbc="F F F"
C       -0.10510000       1.57530000      -0.15390000
C        0.01780000       0.06680000       0.00200000
C        1.03610000      -0.65800000      -0.89150000
O        2.34230000      -0.20210000      -0.50090000
C        1.72950000      -1.24680000       0.25950000
C        0.76920000      -0.57520000       1.25780000
C        1.38770000       0.35330000       2.28880000
O        0.00310000      -1.60440000       1.86090000
H        0.88100000       2.04660000      -0.17540000
H       -0.61990000       1.82830000      -1.08740000
H       -0.67870000       2.01870000       0.66730000
H       -0.95770000      -0.42540000      -0.06250000
H        0.92710000      -1.01990000      -1.90770000
H        2.26430000      -2.18250000       0.37710000
H        2.08260000       1.04970000       1.81460000
H        0.61690000       0.93980000       2.80430000
H        1.92910000      -0.23120000       3.03910000
H       -0.65880000      -1.19090000       2.42540000
