17
Properties=species:S:1:pos:R:3 gdb_94983=T pbc="F F F"
O       -0.02070000       1.42180000       0.22590000
C       -0.02360000       0.02480000       0.03120000
C        0.61410000      -0.64980000       1.31720000
O       -0.18130000      -1.79260000       1.73400000
C       -1.04470000      -2.05440000       0.65030000
C       -2.60240000      -1.86620000       0.57650000
C       -2.45600000      -0.45620000       1.15310000
C       -1.34560000      -0.68980000       0.09030000
O       -2.36500000      -1.30730000      -0.80340000
H       -0.34830000       1.83880000      -0.57730000
H        0.53980000      -0.26300000      -0.86760000
H        1.63800000      -0.97910000       1.11330000
H        0.62780000       0.08420000       2.12750000
H       -0.66110000      -2.80700000      -0.04620000
H       -3.41070000      -2.59330000       0.65530000
H       -3.23230000       0.24910000       0.85770000
H       -2.14550000      -0.35960000       2.19300000
