16
Properties=species:S:1:pos:R:3 gdb_46233=T pbc="F F F"
O       -0.01440000       0.04640000      -0.21040000
C       -0.03190000       1.22520000      -0.02020000
C       -1.09920000       2.27030000       0.36380000
N       -0.00710000       3.28960000       0.47700000
C        0.99220000       2.33060000      -0.01910000
C        2.43820000       2.25730000       0.35640000
C        2.06790000       2.59910000      -1.07560000
C        2.29190000       1.68180000      -2.15130000
C        2.48280000       0.91790000      -3.06010000
H       -1.83140000       2.44890000      -0.43240000
H       -1.62770000       2.08400000       1.30350000
H       -0.14680000       4.07410000      -0.15130000
H        2.82740000       3.06020000       0.97260000
H        2.84650000       1.27030000       0.54400000
H        2.16270000       3.65160000      -1.33470000
H        2.64540000       0.23380000      -3.85560000
