19
Properties=species:S:1:pos:R:3 gdb_41550=T pbc="F F F"
C        0.00660000       1.51740000       0.29080000
O        1.39090000       1.60710000      -0.11840000
C        1.42550000       0.20080000      -0.47130000
C       -0.04080000       0.00270000      -0.02020000
C       -0.75190000      -0.57580000      -1.22880000
C       -0.62200000       0.02730000      -2.62390000
C        0.59580000       0.94100000      -2.77120000
C        1.43260000      -0.11380000      -1.98170000
C        0.26240000      -1.13300000      -2.19610000
H       -0.11200000       1.78140000       1.34820000
H       -0.64980000       2.15280000      -0.31610000
H        2.21620000      -0.32490000       0.07600000
H       -0.19540000      -0.62560000       0.85950000
H       -1.66650000      -1.13950000      -1.07730000
H       -1.47540000       0.00320000      -3.29270000
H        0.91570000       0.97720000      -3.81590000
H        0.56640000       1.95610000      -2.37040000
H        2.41310000      -0.35470000      -2.39060000
H        0.31710000      -2.15160000      -2.55570000
