20
Properties=species:S:1:pos:R:3 gdb_8674=T pbc="F F F"
C        0.11880000       1.56120000       0.02380000
C        0.00720000       0.03560000      -0.00440000
C       -1.44080000      -0.53250000       0.01770000
C       -1.37600000      -2.07740000       0.01630000
C       -2.20930000      -0.05210000       1.27090000
O       -1.46340000      -0.42520000       2.41960000
C       -2.18580000      -0.07420000      -1.15870000
C       -2.80620000       0.29730000      -2.11990000
H        1.16300000       1.86740000      -0.09240000
H       -0.45790000       2.01790000      -0.78640000
H       -0.23740000       1.97320000       0.97290000
H        0.49700000      -0.35070000      -0.90520000
H        0.53510000      -0.38790000       0.85530000
H       -0.89260000      -2.42600000       0.93190000
H       -2.38020000      -2.50840000      -0.03420000
H       -0.80840000      -2.43800000      -0.84570000
H       -2.34950000       1.03620000       1.22060000
H       -3.20660000      -0.51630000       1.27110000
H       -1.95480000      -0.15260000       3.19930000
H       -3.35020000       0.62240000      -2.97200000
