19
Properties=species:S:1:pos:R:3 gdb_115461=T pbc="F F F"
O        0.27040000       1.24620000      -0.38370000
C       -0.00410000      -0.12070000      -0.12500000
C       -1.48240000      -0.39190000       0.18820000
C       -2.38340000      -0.18390000      -1.03830000
O       -2.33220000      -1.41800000      -1.75230000
C       -2.37150000      -2.44890000      -0.76950000
C       -1.72100000      -1.88800000       0.51420000
C       -3.81970000      -2.90330000      -0.57440000
O       -4.28690000      -3.28920000       0.46480000
H        0.01450000       1.44150000      -1.28930000
H        0.31860000      -0.76230000      -0.95940000
H        0.60160000      -0.39030000       0.74700000
H       -1.78330000       0.26110000       1.01190000
H       -3.41550000       0.05090000      -0.73450000
H       -2.04680000       0.60520000      -1.71700000
H       -1.83050000      -3.31010000      -1.18470000
H       -0.78420000      -2.40170000       0.74560000
H       -2.39390000      -2.03370000       1.36170000
H       -4.42010000      -2.84870000      -1.51000000
