15
Properties=species:S:1:pos:R:3 gdb_67189=T pbc="F F F"
O       -0.19290000       1.41160000      -0.03840000
C        0.01490000       0.05940000      -0.00600000
C       -0.97070000      -1.08130000       0.05330000
N       -0.38230000      -1.72700000      -1.11240000
C        0.82810000      -0.83720000      -1.00070000
C        1.83430000      -1.53140000      -0.12130000
N        2.96750000      -1.97630000      -0.45320000
O        1.25690000      -1.66800000       1.12830000
C        0.08720000      -0.86930000       1.15990000
H        0.53310000       1.85150000       0.41950000
H       -2.03440000      -1.10660000       0.26060000
H       -0.16880000      -2.71640000      -0.98460000
H        1.20820000      -0.44620000      -1.94110000
H        3.42040000      -2.44000000       0.33690000
H       -0.22060000      -0.58290000       2.15700000
