13
Properties=species:S:1:pos:R:3 gdb_132075=T pbc="F F F"
O        0.02600000       1.36590000       0.00700000
C       -0.02850000       0.02540000       0.00070000
C       -1.17280000      -0.69950000       0.00370000
F       -2.36480000      -0.10820000       0.01350000
C       -1.12340000      -2.13040000      -0.00370000
C        0.07470000      -2.73520000      -0.01360000
O        1.24390000      -2.03990000      -0.01690000
C        1.25180000      -0.66880000      -0.01010000
N        2.32250000       0.02380000      -0.01290000
H        0.98130000       1.57070000       0.00260000
H       -2.03950000      -2.70460000      -0.00130000
H        0.24550000      -3.80190000      -0.01990000
H        3.16500000      -0.54550000      -0.02060000
