19
Properties=species:S:1:pos:R:3 gdb_11542=T pbc="F F F"
C        0.93370000       1.11240000       0.02490000
N        0.96020000      -0.18150000      -0.62580000
C       -0.10660000      -0.67770000      -1.31500000
O       -1.15440000      -0.07100000      -1.45380000
C        0.07940000      -2.08480000      -1.89460000
C        1.49940000      -2.55080000      -2.13670000
C        2.30070000      -3.21500000      -1.03270000
C        1.80930000      -4.02260000      -2.20730000
H        1.73640000       1.76070000      -0.34410000
H       -0.02950000       1.57010000      -0.20350000
H        1.03470000       1.01880000       1.11260000
H        1.78090000      -0.75840000      -0.54520000
H       -0.42600000      -2.77820000      -1.20920000
H       -0.50150000      -2.10370000      -2.82190000
H        2.06870000      -1.92120000      -2.81590000
H        3.36330000      -3.00840000      -0.96130000
H        1.81280000      -3.37080000      -0.07550000
H        0.99480000      -4.71850000      -2.03580000
H        2.53610000      -4.36080000      -2.93700000
