20
Properties=species:S:1:pos:R:3 gdb_111984=T pbc="F F F"
C       -0.05690000       1.54370000       0.01560000
C        0.09100000       0.04560000      -0.02930000
N       -0.78740000      -0.81870000       0.81650000
C        0.67880000      -0.78980000       1.05430000
C        1.43220000      -1.96360000       0.42620000
C        0.97070000      -3.33260000       0.95800000
O        1.63750000      -4.41950000       0.32980000
C        1.17390000      -1.75420000      -1.05610000
C        0.45900000      -0.65540000      -1.30260000
H        0.82830000       2.03940000      -0.39720000
H       -0.92470000       1.87290000      -0.56780000
H       -0.19100000       1.89640000       1.04360000
H       -1.22860000      -0.23210000       1.52470000
H        1.04060000      -0.34930000       1.97800000
H        2.50780000      -1.87860000       0.63540000
H        1.21450000      -3.40800000       2.02340000
H       -0.11880000      -3.40720000       0.85730000
H        1.24300000      -4.54060000      -0.53870000
H        1.53110000      -2.44870000      -1.80900000
H        0.15200000      -0.30040000      -2.28010000
