22
Properties=species:S:1:pos:R:3 gdb_93861=T pbc="F F F"
C       -0.66310000       1.34410000       0.01930000
C        0.14890000       0.05470000      -0.04280000
C        1.30270000       0.07690000      -1.05520000
O        2.24430000      -0.90680000      -0.63700000
C        1.95870000      -1.34080000       0.70000000
C        3.24940000      -1.43920000       1.49420000
C        0.89960000      -0.36970000       1.21860000
C        1.08470000       0.52210000       2.39130000
N        0.24060000      -0.68880000       2.48190000
H       -0.02140000       2.21430000       0.18960000
H       -1.20470000       1.50640000      -0.91790000
H       -1.41040000       1.31230000       0.82100000
H       -0.52370000      -0.77400000      -0.30820000
H        0.97720000      -0.15270000      -2.07640000
H        1.77910000       1.07040000      -1.06890000
H        1.49510000      -2.33980000       0.65260000
H        3.75650000      -0.47090000       1.53840000
H        3.04060000      -1.78320000       2.51230000
H        3.92530000      -2.15690000       1.02140000
H        1.99830000       0.48290000       2.97620000
H        0.59760000       1.49280000       2.38470000
H       -0.74360000      -0.43020000       2.44520000
