21
Properties=species:S:1:pos:R:3 gdb_1291=T pbc="F F F"
C       -0.08490000       1.56150000       0.11300000
C       -0.02060000       0.03250000      -0.00900000
C       -1.43260000      -0.56890000       0.00590000
C        0.74620000      -0.42680000      -1.26300000
C        2.22820000      -0.03870000      -1.29350000
C        2.96090000      -0.61530000      -2.49790000
O        4.31300000      -0.18470000      -2.43860000
H        0.90980000       2.01140000       0.17670000
H       -0.59560000       2.00030000      -0.75310000
H       -0.63990000       1.85930000       1.00890000
H        0.51840000      -0.35350000       0.86880000
H       -2.01550000      -0.22000000      -0.85520000
H       -1.40200000      -1.66290000      -0.03580000
H       -1.97740000      -0.28210000       0.91150000
H        0.66450000      -1.52010000      -1.33790000
H        0.24190000      -0.02510000      -2.15430000
H        2.34780000       1.05000000      -1.31520000
H        2.72950000      -0.39030000      -0.38290000
H        2.89260000      -1.71580000      -2.48340000
H        2.47480000      -0.27370000      -3.42700000
H        4.77800000      -0.54890000      -3.19720000
