18
Properties=species:S:1:pos:R:3 gdb_47584=T pbc="F F F"
N        0.16670000       0.82870000       1.01070000
C        0.10510000      -0.13730000       0.19740000
O        1.22220000      -0.65720000      -0.39690000
C        1.04450000      -1.85850000      -1.15370000
O        0.26990000      -2.78730000      -0.47150000
C       -1.06790000      -2.32140000      -0.35730000
C       -1.72450000      -2.51410000       1.02560000
C       -2.19280000      -1.02890000       0.97790000
C       -1.20490000      -0.78020000      -0.19380000
H        1.13630000       1.12730000       1.13370000
H        0.60690000      -1.60660000      -2.13320000
H        2.04340000      -2.27650000      -1.28580000
H       -1.66950000      -2.71500000      -1.18660000
H       -2.48900000      -3.28830000       1.10970000
H       -0.95780000      -2.68210000       1.78530000
H       -3.23350000      -0.92290000       0.66470000
H       -2.01910000      -0.41960000       1.86380000
H       -1.60470000      -0.24780000      -1.06220000
