18
Properties=species:S:1:pos:R:3 gdb_14530=T pbc="F F F"
O        0.01580000       1.40540000       0.31650000
C        0.00890000       0.03330000       0.01680000
C        0.95280000      -0.54230000      -1.00040000
C        1.11530000      -0.86950000       0.47920000
C       -1.42040000      -0.44810000       0.08520000
C       -2.36370000      -0.06400000      -1.07730000
C       -2.50600000      -1.58570000      -1.27170000
O       -1.54690000      -1.85380000      -0.22160000
H        0.92490000       1.71950000       0.31140000
H        0.59550000      -1.33430000      -1.64870000
H        1.67380000       0.13000000      -1.45550000
H        1.94460000      -0.41600000       1.01420000
H        0.85900000      -1.87240000       0.80140000
H       -1.82120000      -0.21820000       1.08170000
H       -3.27140000       0.47110000      -0.79780000
H       -1.86750000       0.46210000      -1.89380000
H       -3.49180000      -2.00180000      -1.03000000
H       -2.17720000      -1.99060000      -2.23590000
