18
Properties=species:S:1:pos:R:3 gdb_55730=T pbc="F F F"
C       -0.34770000       1.60270000      -0.06080000
C       -0.40330000       0.08460000       0.00530000
O       -0.87710000      -0.52130000       0.94550000
N        0.14050000      -0.56220000      -1.08070000
C        0.25600000      -1.98620000      -1.12830000
C       -0.99760000      -2.81780000      -1.36730000
C        0.00330000      -2.67940000      -2.46050000
C        1.28620000      -2.59780000      -0.23470000
O        1.51340000      -3.78120000      -0.17940000
H        0.54480000       1.95500000       0.46700000
H       -0.31590000       1.98680000      -1.08420000
H       -1.22050000       2.00570000       0.45440000
H        0.60420000      -0.01830000      -1.79070000
H       -1.03950000      -3.75720000      -0.82960000
H       -1.92430000      -2.26230000      -1.43300000
H       -0.23180000      -2.03710000      -3.30210000
H        0.64770000      -3.52430000      -2.67440000
H        1.84440000      -1.86150000       0.38290000
