13
Properties=species:S:1:pos:R:3 gdb_129034=T pbc="F F F"
N       -0.11400000       1.26560000      -0.19200000
C       -0.00740000       0.00840000      -0.00130000
C       -1.21280000      -0.81270000      -0.03690000
C       -1.36920000      -2.02740000       0.50900000
C       -0.38180000      -2.74310000       1.29240000
N        0.89800000      -2.70780000       1.33580000
O        1.60960000      -1.91140000       0.40540000
C        1.39170000      -0.59920000       0.08870000
O        2.34360000       0.05570000      -0.23000000
H        0.82380000       1.68190000      -0.19190000
H       -2.05530000      -0.32930000      -0.52110000
H       -2.34550000      -2.49990000       0.45980000
H       -0.76770000      -3.46670000       2.01050000
