18
Properties=species:S:1:pos:R:3 gdb_99599=T pbc="F F F"
C        0.10400000       1.46870000      -0.54630000
C        0.03070000       0.01520000      -0.13490000
C        1.21660000      -0.84660000      -0.24490000
O        0.78860000      -0.33960000       1.02490000
C       -1.34830000      -0.65740000      -0.14820000
C       -2.33020000      -0.04180000       0.88440000
O       -3.53020000      -0.77350000       0.97090000
C       -1.95420000      -0.62780000      -1.48160000
N       -2.46820000      -0.58010000      -2.51630000
H        1.13880000       1.81560000      -0.50930000
H       -0.27590000       1.60460000      -1.56350000
H       -0.48650000       2.10030000       0.12450000
H        1.10060000      -1.92040000      -0.38370000
H        2.14720000      -0.42730000      -0.62330000
H       -1.21640000      -1.70680000       0.13630000
H       -1.85210000      -0.09710000       1.86570000
H       -2.51120000       1.01520000       0.64710000
H       -4.01910000      -0.65210000       0.14900000
