18
Properties=species:S:1:pos:R:3 gdb_37713=T pbc="F F F"
C       -0.07670000       1.61400000       0.03370000
C        1.44210000       1.26170000      -0.01110000
C        1.24470000       0.03380000       0.91390000
N        1.92920000      -0.93970000      -0.01020000
C        1.26380000      -2.26800000       0.02030000
C       -0.25950000      -2.27160000       0.06790000
C       -0.93880000      -1.12040000       0.08060000
C       -0.05870000       0.07350000       0.04440000
C        1.18790000       0.02040000      -0.90400000
H       -0.43490000       2.11280000       0.93980000
H       -0.49090000       2.09960000      -0.85560000
H        2.30550000       1.92530000      -0.04300000
H        1.30950000      -0.02560000       2.00210000
H        1.60350000      -2.82930000      -0.86110000
H        1.65810000      -2.81650000       0.88700000
H       -0.75560000      -3.23810000       0.09050000
H       -2.02180000      -1.06160000       0.11400000
H        1.18480000      -0.05500000      -1.99310000
