16
Properties=species:S:1:pos:R:3 gdb_14932=T pbc="F F F"
O       -0.05160000      -0.03180000       0.03170000
C       -0.00770000       1.17860000       0.01580000
C        1.23650000       1.95970000      -0.01670000
C        1.19320000       3.29910000      -0.01250000
C        2.44060000       4.13100000       0.00090000
C        3.64740000       3.25720000       0.36480000
O        3.64230000       2.05210000      -0.37730000
C        2.54910000       1.21600000      -0.04910000
H       -0.93720000       1.79220000       0.02640000
H        0.22920000       3.80540000      -0.01650000
H        2.58600000       4.59080000      -0.98660000
H        2.34050000       4.96080000       0.71200000
H        4.58800000       3.76200000       0.13010000
H        3.63640000       3.04340000       1.44640000
H        2.71400000       0.71410000       0.91990000
H        2.51270000       0.42860000      -0.80740000
