19
Properties=species:S:1:pos:R:3 gdb_107501=T pbc="F F F"
O        0.18890000       1.36480000       0.26100000
C        0.01500000      -0.00560000      -0.07330000
C       -1.43790000      -0.34370000       0.02750000
O       -1.86490000      -1.52670000      -0.67550000
C       -2.53870000      -0.29160000      -0.95180000
C       -3.58620000      -0.08550000       0.15660000
C       -2.41720000      -0.14130000       1.17360000
C       -2.36220000      -0.74300000       2.54490000
C       -2.22670000       0.75320000       2.36050000
H        1.13310000       1.54740000       0.27790000
H        0.34720000      -0.23010000      -1.09750000
H        0.58720000      -0.65750000       0.60750000
H       -2.55400000       0.04860000      -1.98090000
H       -4.06720000       0.89570000       0.11810000
H       -4.34290000      -0.87140000       0.22280000
H       -3.28650000      -1.12360000       2.96740000
H       -1.48080000      -1.31210000       2.82330000
H       -1.25140000       1.20740000       2.49100000
H       -3.05980000       1.38180000       2.65910000
