18
Properties=species:S:1:pos:R:3 gdb_1515=T pbc="F F F"
C        0.06310000       1.56810000       0.02070000
C        0.24770000       0.04990000       0.05630000
C        0.44400000      -0.55940000      -1.33620000
C        0.45990000      -2.08610000      -1.29910000
O       -0.26580000      -2.72610000      -0.55720000
N        1.33110000      -2.67400000      -2.17170000
C        1.44670000      -4.11180000      -2.31270000
H        0.93190000       2.06960000      -0.42100000
H       -0.81490000       1.84720000      -0.57280000
H       -0.07510000       1.97220000       1.02830000
H        1.10920000      -0.20540000       0.68560000
H       -0.61830000      -0.43440000       0.51660000
H       -0.39220000      -0.26300000      -1.98450000
H        1.35460000      -0.16840000      -1.80730000
H        1.90090000      -2.08300000      -2.75310000
H        0.75760000      -4.56150000      -1.59690000
H        1.17740000      -4.44020000      -3.32330000
H        2.46440000      -4.45430000      -2.09390000
