17
Properties=species:S:1:pos:R:3 gdb_43780=T pbc="F F F"
O        0.02290000       0.05130000      -0.03520000
C        0.01870000       1.25130000      -0.00330000
C       -1.19610000       2.20570000       0.01780000
C       -0.41580000       3.54440000       0.05600000
C        0.70050000       3.28140000      -1.01290000
C        1.19120000       2.22160000       0.02660000
C        0.69300000       3.22490000       1.11730000
C       -1.17450000       4.76810000       0.08580000
C       -1.80530000       5.79170000       0.11090000
H       -1.81670000       2.09050000      -0.87520000
H       -1.82290000       2.04340000       0.89900000
H        0.38740000       2.93850000      -2.00240000
H        1.39100000       4.12190000      -1.09900000
H        2.19120000       1.79600000       0.01880000
H        1.38280000       4.05950000       1.25270000
H        0.37300000       2.83000000       2.08500000
H       -2.36420000       6.69430000       0.13330000
