21
Properties=species:S:1:pos:R:3 gdb_106731=T pbc="F F F"
C        0.22720000       1.43940000       0.25390000
C       -0.15630000       0.00400000      -0.12750000
C        0.56080000      -0.50360000      -1.35860000
C        1.97820000      -1.03550000      -1.21440000
C        0.84940000      -1.98230000      -1.56480000
O        0.41570000      -2.93270000      -0.63790000
C        0.65400000      -2.23450000      -3.02590000
C        0.31860000      -1.11700000      -3.67200000
C        0.18790000       0.06470000      -2.73300000
H        1.30090000       1.51960000       0.45440000
H       -0.01230000       2.14450000      -0.54940000
H       -0.30860000       1.76500000       1.15110000
H        0.05210000      -0.67430000       0.70690000
H       -1.23970000      -0.05190000      -0.29780000
H        2.72610000      -0.81170000      -1.96910000
H        2.35360000      -1.08920000      -0.19580000
H        1.15540000      -3.51430000      -0.43540000
H        0.80120000      -3.21310000      -3.46890000
H        0.17780000      -1.02650000      -4.74310000
H       -0.83530000       0.46660000      -2.73620000
H        0.84290000       0.89420000      -3.02980000
