20
Properties=species:S:1:pos:R:3 gdb_105468=T pbc="F F F"
O       -0.05990000       1.45080000      -0.59620000
C       -0.01380000       0.11580000      -0.11760000
C       -1.39260000      -0.49800000       0.04640000
C       -2.35130000       0.26620000       0.94480000
C       -1.91350000       0.26500000       2.42690000
C       -2.89460000       0.91110000       3.29490000
N       -3.68500000       1.42140000       3.96600000
C       -1.97440000      -1.19070000      -1.16830000
C       -1.48850000      -2.00410000       0.00570000
H       -0.51820000       1.43930000      -1.44370000
H        0.59440000      -0.52790000      -0.77260000
H        0.50930000       0.17240000       0.84380000
H       -2.42740000       1.30180000       0.59950000
H       -3.35160000      -0.17230000       0.87390000
H       -1.76350000      -0.76350000       2.77490000
H       -0.95650000       0.78380000       2.54600000
H       -3.04380000      -1.12190000      -1.33580000
H       -1.38350000      -1.21440000      -2.07880000
H       -0.57430000      -2.57650000      -0.11250000
H       -2.23180000      -2.48400000       0.63400000
