20
Properties=species:S:1:pos:R:3 gdb_66383=T pbc="F F F"
C        0.07640000       1.53720000       0.16370000
C       -0.00580000       0.00390000       0.09230000
C        0.57900000      -0.50990000      -1.23520000
O        0.69820000      -1.92100000      -1.25190000
C        1.50600000      -2.40040000      -0.19070000
C        0.89500000      -2.00970000       1.15360000
N        0.66740000      -0.56350000       1.26870000
C       -1.49730000      -0.34730000       0.19430000
O       -2.25120000      -0.39690000      -0.74060000
H        1.12250000       1.86150000       0.12280000
H       -0.45900000       1.99160000      -0.67380000
H       -0.35660000       1.90330000       1.09930000
H       -0.08350000      -0.24680000      -2.06330000
H        1.56550000      -0.04150000      -1.39830000
H        1.56030000      -3.48750000      -0.30630000
H        2.52930000      -1.99180000      -0.27410000
H       -0.06990000      -2.52200000       1.26200000
H        1.53040000      -2.33350000       1.98450000
H        1.55650000      -0.09050000       1.40210000
H       -1.83840000      -0.50350000       1.24280000
