19
Properties=species:S:1:pos:R:3 gdb_15167=T pbc="F F F"
C        0.40830000       0.31930000       0.68900000
C       -0.19940000       0.27170000      -0.71710000
N        0.58610000      -0.28420000      -1.80600000
C        1.74050000      -0.73250000      -1.60080000
O        2.45350000      -1.24940000      -2.63480000
C        3.75370000      -1.67790000      -2.31590000
C        3.94470000      -3.03840000      -1.69930000
C        4.29010000      -2.79030000      -3.15350000
H        0.64850000      -0.68090000       1.06530000
H        1.32210000       0.92260000       0.71850000
H       -0.30850000       0.77010000       1.38200000
H       -1.14150000      -0.29190000      -0.68390000
H       -0.48670000       1.28770000      -1.01940000
H        2.27320000      -0.76400000      -0.64310000
H        4.42380000      -0.87200000      -2.02480000
H        4.74780000      -3.17270000      -0.98320000
H        3.04930000      -3.61470000      -1.49630000
H        3.61570000      -3.19610000      -3.89830000
H        5.33220000      -2.75580000      -3.44890000
