17
Properties=species:S:1:pos:R:3 gdb_55174=T pbc="F F F"
C        0.04870000       1.33010000       0.32530000
C        0.02480000      -0.17920000       0.18620000
O        1.01310000      -0.86640000       0.24620000
C       -1.36310000      -0.78810000       0.00410000
O       -1.38070000      -2.22910000      -0.03810000
C       -2.19160000      -2.30980000       1.14340000
C       -1.38520000      -2.25540000       2.45640000
O       -1.49510000      -0.80000000       2.49710000
C       -2.25220000      -0.77960000       1.28080000
H        1.07360000       1.69220000       0.23440000
H       -0.59130000       1.81840000      -0.41670000
H       -0.33480000       1.59180000       1.31870000
H       -1.84890000      -0.36020000      -0.88470000
H       -3.02460000      -3.00670000       1.04630000
H       -1.86930000      -2.70490000       3.33060000
H       -0.34980000      -2.59520000       2.36610000
H       -3.12930000      -0.13240000       1.32280000
