20
Properties=species:S:1:pos:R:3 gdb_69656=T pbc="F F F"
C        0.13140000       1.56860000       0.01790000
C       -0.01800000       0.07900000       0.07880000
C       -1.33990000      -0.70740000      -0.02750000
C       -0.76600000      -1.76070000       0.96700000
C       -1.50610000      -2.10400000       2.27540000
O       -1.36150000      -3.51810000       2.04040000
C       -0.76790000      -3.28790000       0.74630000
C        0.53380000      -0.95340000       1.02640000
N        1.10550000      -0.77000000      -0.30680000
H        1.15080000       1.85980000       0.28350000
H       -0.07120000       1.94020000      -0.99380000
H       -0.56620000       2.06430000       0.70140000
H       -2.19890000      -0.17750000       0.39550000
H       -1.60640000      -1.05820000      -1.03160000
H       -1.01550000      -1.78720000       3.20510000
H       -2.56070000      -1.79670000       2.30690000
H       -1.41680000      -3.64000000      -0.06760000
H        0.21660000      -3.76420000       0.65070000
H        1.18990000      -0.85590000       1.88580000
H        0.85040000      -1.51570000      -0.95330000
