16
Properties=species:S:1:pos:R:3 gdb_50257=T pbc="F F F"
O       -0.16860000       0.12430000       0.21740000
C       -0.02220000       1.32340000       0.31950000
N        1.16480000       1.95750000       0.13980000
C        2.44420000       1.43360000      -0.35090000
C        2.90310000       2.89510000      -0.59480000
C        2.49520000       3.47780000      -1.97560000
C        1.15860000       3.94920000      -1.36270000
O        0.21030000       4.54100000      -1.78100000
C        1.53360000       3.37280000       0.02850000
H       -0.83440000       2.02820000       0.58690000
H        3.00210000       0.89430000       0.42130000
H        2.35930000       0.79700000      -1.23740000
H        3.86320000       3.20020000      -0.18820000
H        3.10260000       4.33160000      -2.29340000
H        2.42360000       2.77730000      -2.81240000
H        1.39810000       3.98440000       0.92350000
