11
Properties=species:S:1:pos:R:3 gdb_24898=T pbc="F F F"
O       -0.02260000       0.00490000       0.34160000
C        0.02510000       1.14910000       0.00270000
O       -1.15570000       1.79550000      -0.38270000
C       -1.12460000       3.09030000      -0.76990000
C        0.02630000       3.80260000      -0.80090000
N        1.22810000       3.23880000      -0.43710000
C        1.22170000       2.00390000      -0.06410000
C       -2.39450000       3.62690000      -1.13630000
N       -3.41340000       4.08440000      -1.43850000
H        0.03070000       4.83810000      -1.11380000
H        2.15360000       1.52780000       0.22970000
