17
Properties=species:S:1:pos:R:3 gdb_128121=T pbc="F F F"
C        0.11490000       1.50320000       0.07640000
N       -0.14400000       0.06720000       0.06520000
C        0.48900000      -0.70180000       1.03380000
C        0.59700000      -2.07920000       1.12280000
C        0.12970000      -3.21780000       0.28470000
O        0.96410000      -4.33490000       0.57130000
N        1.24350000      -2.25860000       2.30450000
N        1.53400000      -1.10350000       2.90390000
N        1.07110000      -0.14820000       2.13390000
H        1.17590000       1.76030000      -0.05410000
H       -0.46710000       1.96650000      -0.72410000
H       -0.20910000       1.92030000       1.03180000
H       -0.07590000      -0.33630000      -0.85900000
H       -0.92470000      -3.45490000       0.50310000
H        0.17730000      -2.93890000      -0.78090000
H        0.55430000      -5.12100000       0.19840000
H        1.55870000      -3.13520000       2.68890000
