19
Properties=species:S:1:pos:R:3 gdb_86714=T pbc="F F F"
C        0.17760000       1.53920000      -0.19570000
C        0.10360000       0.03410000       0.00300000
O        0.69210000      -0.60340000      -1.13860000
C        1.14200000      -1.88900000      -0.77800000
C        2.33180000      -2.30000000      -1.62680000
O        2.95700000      -1.57340000      -2.35000000
C        1.51350000      -1.80470000       0.70740000
C        2.35900000      -0.61020000       1.07450000
C        0.85870000      -0.53750000       1.19550000
H        1.21750000       1.87280000      -0.24540000
H       -0.32220000       1.82360000      -1.12560000
H       -0.31730000       2.05470000       0.63320000
H       -0.95370000      -0.27070000       0.08760000
H        0.35380000      -2.65390000      -0.90910000
H        2.60720000      -3.37280000      -1.49080000
H        1.54390000      -2.71260000       1.29680000
H        2.93120000      -0.66980000       1.99300000
H        2.84320000      -0.06840000       0.26820000
H        0.39830000      -0.48310000       2.17510000
