23
Properties=species:S:1:pos:R:3 gdb_118520=T pbc="F F F"
C       -0.03180000       1.55920000       0.05410000
C       -0.00410000       0.02920000       0.02210000
C       -1.40360000      -0.59270000       0.02330000
C       -1.39060000      -2.12290000      -0.04720000
C       -2.83580000      -2.68220000       0.02930000
C       -2.93950000      -4.11190000       0.29620000
C       -3.03860000      -5.28360000       0.54850000
O       -0.75870000      -2.47800000      -1.26560000
C       -0.07420000      -3.71510000      -1.27590000
H        0.98050000       1.97540000       0.05310000
H       -0.55790000       1.96370000      -0.81790000
H       -0.54330000       1.93220000       0.94890000
H        0.53070000      -0.31840000      -0.86730000
H        0.55810000      -0.34580000       0.88810000
H       -1.94590000      -0.28670000       0.92710000
H       -1.97750000      -0.21250000      -0.83270000
H       -0.81220000      -2.52210000       0.80130000
H       -3.37670000      -2.14120000       0.81600000
H       -3.33290000      -2.43940000      -0.91780000
H       -3.12430000      -6.32000000       0.76250000
H        0.65620000      -3.77750000      -0.45490000
H       -0.75510000      -4.57050000      -1.20020000
H        0.46290000      -3.76860000      -2.22680000
