11
Properties=species:S:1:pos:R:3 gdb_133435=T pbc="F F F"
F        0.03000000       0.09450000      -0.25120000
C       -0.08160000       1.38030000      -0.06170000
N       -1.18290000       1.84840000       0.34960000
O       -1.21190000       3.24770000       0.52570000
C       -0.12110000       4.04310000       0.26860000
N       -0.17290000       5.29040000       0.43570000
C        1.13060000       3.38730000      -0.21610000
N        2.18160000       4.01210000      -0.48380000
O        1.06550000       1.99820000      -0.35900000
H       -1.09800000       5.57050000       0.76920000
H        2.92080000       3.38130000      -0.79880000
