20
Properties=species:S:1:pos:R:3 gdb_13712=T pbc="F F F"
C        0.17350000       1.46580000      -0.31070000
C       -0.00460000       0.02230000       0.08520000
O        1.17510000      -0.77930000       0.22140000
C        0.37000000      -0.55640000       1.38700000
C        1.00140000       0.19720000       2.53290000
C        1.99680000      -0.67650000       3.30760000
C        2.64480000       0.05930000       4.47230000
O        3.52250000      -0.84360000       5.12670000
H        0.98240000       1.94610000       0.24290000
H        0.40870000       1.53550000      -1.37800000
H       -0.75200000       2.02570000      -0.13630000
H       -0.80930000      -0.48630000      -0.45170000
H       -0.18520000      -1.44510000       1.70050000
H        1.50990000       1.09120000       2.15840000
H        0.20320000       0.54050000       3.20590000
H        1.49220000      -1.56880000       3.69820000
H        2.78070000      -1.02920000       2.62870000
H        3.18750000       0.94320000       4.09780000
H        1.86490000       0.42680000       5.16060000
H        3.94900000      -0.37720000       5.85130000
