16
Properties=species:S:1:pos:R:3 gdb_123577=T pbc="F F F"
C        0.04920000       1.47970000      -0.01020000
C        1.28330000       0.65930000       0.04640000
C        1.94550000       0.36640000       1.40980000
C        0.83110000      -0.36840000       2.10180000
N        0.62440000      -0.90200000       3.29530000
N       -0.61900000      -1.42900000       3.17690000
C       -1.19380000      -1.24590000       1.94720000
C       -0.25530000      -0.54570000       1.22930000
N       -0.06590000       0.00010000      -0.06970000
H       -0.28920000       1.96580000       0.90160000
H       -0.21420000       1.99150000      -0.93120000
H        1.90220000       0.59030000      -0.84200000
H        2.83810000      -0.25540000       1.27870000
H        2.25940000       1.27880000       1.92770000
H       -1.01160000      -1.91780000       3.96280000
H       -2.17950000      -1.61750000       1.72050000
