21
Properties=species:S:1:pos:R:3 gdb_89062=T pbc="F F F"
C        0.66430000       1.59540000      -0.22200000
C        0.26690000       0.16490000       0.03830000
O        1.31650000      -0.78260000       0.26940000
C        0.38810000      -0.52860000       1.33290000
C        0.94070000       0.07580000       2.60080000
C        1.82890000      -0.91940000       3.36620000
C        2.37140000      -0.33190000       4.64510000
C        3.73710000      -0.58940000       5.11680000
O        3.39750000       0.65700000       4.50640000
H        1.43910000       1.93620000       0.46670000
H        1.05150000       1.69650000      -1.24140000
H       -0.20490000       2.25570000      -0.12830000
H       -0.50820000      -0.20940000      -0.63510000
H       -0.30170000      -1.36010000       1.50490000
H        1.52960000       0.96970000       2.38020000
H        0.09970000       0.38990000       3.23400000
H        1.25800000      -1.82680000       3.60550000
H        2.66090000      -1.22100000       2.72140000
H        1.62080000      -0.07460000       5.39650000
H        3.96440000      -0.54350000       6.18120000
H        4.39200000      -1.23310000       4.53070000
