21
Properties=species:S:1:pos:R:3 gdb_85892=T pbc="F F F"
C       -0.32760000       1.17860000      -1.37280000
C        0.20060000      -0.15270000      -0.86450000
O        1.56920000      -0.38070000      -1.25190000
C        2.04020000      -0.47220000       0.12990000
C        2.63020000      -1.85020000       0.40200000
C        3.04590000       0.63620000       0.41450000
C        0.57920000      -0.28840000       0.63820000
C        0.18970000       0.80660000       1.59370000
O        0.92020000       1.34130000       2.38940000
H        0.25160000       2.01870000      -0.97710000
H       -0.25390000       1.20230000      -2.46440000
H       -1.37950000       1.31740000      -1.10070000
H       -0.44400000      -0.96540000      -1.22480000
H        3.53640000      -1.99750000      -0.19380000
H        2.89420000      -1.95470000       1.45990000
H        1.91870000      -2.63880000       0.13970000
H        2.63000000       1.62190000       0.19730000
H        3.36050000       0.62630000       1.46030000
H        3.92270000       0.48700000      -0.22440000
H        0.17270000      -1.21230000       1.06970000
H       -0.89000000       1.08210000       1.54220000
