14
Properties=species:S:1:pos:R:3 gdb_43534=T pbc="F F F"
N       -0.10560000       1.21820000      -0.68260000
C       -0.05580000       0.08820000      -0.15080000
O        0.98770000      -0.60190000       0.44710000
C        0.16100000      -1.80250000       0.68110000
C        0.11480000      -2.21350000       2.06510000
C        0.05080000      -2.57060000       3.21050000
C       -1.03620000      -1.02020000       0.10010000
C       -2.44830000      -0.99490000       0.46950000
O       -1.99220000      -1.52180000      -0.78820000
H        0.79820000       1.69220000      -0.66500000
H        0.49630000      -2.61160000       0.02520000
H        0.00430000      -2.88510000       4.22430000
H       -2.81990000      -1.73170000       1.17860000
H       -2.99200000      -0.05500000       0.40900000
