19
Properties=species:S:1:pos:R:3 gdb_68339=T pbc="F F F"
C       -0.06320000       1.53900000       0.02990000
C        0.00940000       0.03130000       0.03200000
C        0.95080000      -0.78900000      -0.92140000
C        0.62900000      -1.92830000       0.10540000
C        0.66690000      -0.79970000       1.19190000
C       -0.87840000      -2.06090000      -0.09800000
C       -1.30410000      -0.78530000      -0.14840000
C       -2.58760000      -0.24050000      -0.31800000
C       -3.66960000       0.27450000      -0.46070000
H        0.93000000       1.97850000       0.16590000
H       -0.47340000       1.91290000      -0.91420000
H       -0.70910000       1.90400000       0.83540000
H        0.62530000      -0.93180000      -1.95470000
H        1.99190000      -0.45160000      -0.88230000
H        1.22590000      -2.83570000       0.18100000
H        1.68090000      -0.46330000       1.43240000
H        0.08040000      -0.95230000       2.10120000
H       -1.45060000      -2.97370000      -0.17960000
H       -4.62870000       0.71150000      -0.58720000
