25
Properties=species:S:1:pos:R:3 gdb_92445=T pbc="F F F"
C       -0.21200000       1.59490000      -0.01280000
C        0.02570000       0.08390000      -0.02550000
C        0.76000000      -0.45050000      -1.30150000
C        1.91370000      -1.30530000      -0.72530000
C        2.97600000      -0.34650000      -0.14130000
C        2.28040000       0.20390000       1.14740000
C        0.90030000      -0.49000000       1.12300000
C        1.29030000      -1.88740000       0.57100000
C        0.18170000      -2.92590000       0.40530000
H        0.71310000       2.16080000      -0.16290000
H       -0.89950000       1.88200000      -0.81600000
H       -0.65530000       1.92350000       0.93400000
H       -0.95820000      -0.39300000       0.04260000
H        0.08980000      -1.04380000      -1.93090000
H        1.14040000       0.36520000      -1.92580000
H        2.31960000      -2.03550000      -1.42990000
H        3.89680000      -0.88410000       0.10590000
H        3.24540000       0.44580000      -0.84670000
H        2.83230000      -0.08840000       2.04610000
H        2.21250000       1.29400000       1.16120000
H        0.39240000      -0.48670000       2.09160000
H        2.07500000      -2.32830000       1.19940000
H       -0.63170000      -2.58460000      -0.24060000
H        0.58140000      -3.84670000      -0.03360000
H       -0.25570000      -3.18850000       1.37500000
