16
Properties=species:S:1:pos:R:3 gdb_62336=T pbc="F F F"
C        0.01130000       1.50910000       0.04660000
C        0.03330000      -0.00580000      -0.07950000
C       -1.13320000      -0.63960000       0.48970000
C       -2.13160000      -1.12670000       0.94710000
C        0.69330000      -0.74980000      -1.18240000
C        1.92290000      -0.04760000      -1.75040000
C        2.41220000      -0.02100000      -0.29200000
O        3.37570000       0.37520000       0.28220000
N        1.29480000      -0.80290000       0.22440000
H        0.87120000       1.98720000      -0.42500000
H       -0.89970000       1.89840000      -0.41600000
H        0.00250000       1.78960000       1.10320000
H       -3.00490000      -1.56950000       1.35900000
H        0.24120000      -1.64030000      -1.60170000
H        2.54310000      -0.71150000      -2.35860000
H        1.80100000       0.90500000      -2.27000000
