22
Properties=species:S:1:pos:R:3 gdb_110604=T pbc="F F F"
C        0.29520000       1.43840000       0.20180000
C       -0.14120000       0.01950000      -0.18140000
C        0.58870000      -0.50930000      -1.40450000
C        1.88720000      -1.22000000      -1.12670000
C        0.66760000      -2.00690000      -1.54780000
C        1.50210000      -2.47610000      -2.76360000
C        1.56980000      -3.92630000      -3.14000000
C        2.06400000      -1.37620000      -3.57630000
N        2.72000000      -1.71910000      -2.29110000
H        1.36540000       1.47390000       0.42920000
H        0.10720000       2.14260000      -0.61590000
H       -0.25010000       1.79570000       1.08070000
H        0.02510000      -0.66020000       0.66410000
H       -1.22160000       0.00530000      -0.37440000
H        0.46470000       0.12400000      -2.27830000
H        2.38810000      -1.15610000      -0.16820000
H        0.05210000      -2.68350000      -0.96790000
H        0.65780000      -4.23610000      -3.66440000
H        2.42470000      -4.11650000      -3.79500000
H        1.67670000      -4.55580000      -2.24950000
H        2.68000000      -1.66790000      -4.42290000
H        1.56300000      -0.42550000      -3.71450000
