19
Properties=species:S:1:pos:R:3 gdb_99187=T pbc="F F F"
O        0.22130000       1.30190000      -0.28090000
C        0.07090000      -0.04740000       0.03940000
C       -1.36610000      -0.51220000      -0.15840000
O       -2.20630000       0.29780000      -0.49370000
C       -1.68640000      -1.97650000       0.06590000
C       -3.18010000      -2.26250000       0.10530000
C       -3.96730000      -2.15760000      -1.21910000
O       -4.40060000      -3.53190000      -1.12200000
C       -3.62360000      -3.74260000       0.07130000
H       -0.67230000       1.60960000      -0.50260000
H        0.73240000      -0.68010000      -0.57500000
H        0.34610000      -0.24800000       1.08960000
H       -1.20700000      -2.54410000      -0.74580000
H       -1.18980000      -2.31160000       0.98660000
H       -3.64500000      -1.69320000       0.91280000
H       -4.80800000      -1.45660000      -1.22740000
H       -3.35320000      -1.98290000      -2.11240000
H       -2.81140000      -4.46650000      -0.08820000
H       -4.23930000      -4.08510000       0.91170000
