18
Properties=species:S:1:pos:R:3 gdb_22726=T pbc="F F F"
O        0.18740000       1.32880000       0.14660000
C        0.04630000      -0.06090000      -0.11760000
C       -1.38560000      -0.50440000      -0.09950000
C       -2.10000000      -0.94380000       1.14360000
C       -1.95790000      -1.94170000       0.00720000
C       -2.92000000      -1.59700000      -1.07190000
C       -2.42790000      -0.15770000      -1.18730000
N       -3.70660000      -2.34440000      -1.72580000
O       -4.37660000      -1.60880000      -2.72560000
H       -0.21990000       1.50210000       1.00200000
H        0.48120000      -0.21220000      -1.11160000
H        0.63040000      -0.66980000       0.59170000
H       -1.46720000      -1.16120000       1.99980000
H       -3.07740000      -0.54360000       1.39940000
H       -1.44830000      -2.88770000       0.13910000
H       -3.13700000       0.64260000      -0.95820000
H       -1.98850000       0.03230000      -2.17100000
H       -4.91350000      -2.28770000      -3.14740000
