17
Properties=species:S:1:pos:R:3 gdb_44368=T pbc="F F F"
O        0.00850000       0.17480000      -0.92430000
C        0.00630000       1.10980000      -0.17110000
C       -1.28650000       1.72640000       0.36370000
C       -1.17590000       3.14230000       0.91430000
C       -0.53410000       3.47080000       2.23890000
C        0.54370000       2.43840000       2.56830000
C        1.18490000       2.72310000       1.17020000
O        1.18610000       1.64870000       0.22350000
C        0.16000000       3.82660000       0.91990000
H       -1.98660000       1.69250000      -0.47450000
H       -1.68710000       1.03140000       1.11230000
H       -2.00890000       3.79270000       0.66640000
H       -1.00740000       4.14050000       2.94560000
H        1.20680000       2.75180000       3.37750000
H        0.22170000       1.40980000       2.75840000
H        2.22310000       3.04660000       1.22370000
H        0.35190000       4.78400000       0.45360000
