17
Properties=species:S:1:pos:R:3 gdb_57247=T pbc="F F F"
C        0.06650000       1.50930000      -0.27160000
C        0.01290000      -0.02780000      -0.04920000
C        0.68320000      -0.39700000       1.30330000
C       -1.38000000      -0.47460000      -0.04450000
C       -2.53130000      -0.81410000      -0.00470000
C        0.76970000      -0.72750000      -1.19250000
O        0.27700000      -1.51930000      -1.95780000
C        2.26880000      -0.43150000      -1.42140000
O        2.95520000       0.31950000      -0.78100000
H        1.09760000       1.86450000      -0.25110000
H       -0.39140000       1.78060000      -1.22660000
H       -0.49600000       2.00360000       0.52450000
H        0.12760000       0.07650000       2.11660000
H        0.66280000      -1.47810000       1.46560000
H        1.71610000      -0.04720000       1.32810000
H       -3.54680000      -1.12450000       0.01710000
H        2.65010000      -1.01980000      -2.28280000
