16
Properties=species:S:1:pos:R:3 gdb_49414=T pbc="F F F"
O       -0.63500000       0.74570000       0.63580000
C        0.07920000       1.04100000      -0.28870000
C        1.24880000       1.98630000      -0.20800000
C        1.44370000       3.09110000      -1.24290000
C        0.72370000       4.37650000      -0.91160000
C       -0.40760000       4.36610000       0.05700000
C       -0.03160000       3.67990000       1.13670000
C        1.34250000       3.11740000       0.87390000
N        1.96870000       4.03380000      -0.19080000
H       -0.08120000       0.60080000      -1.30190000
H        2.16660000       1.38490000      -0.19100000
H        1.95030000       2.96210000      -2.19470000
H        0.82180000       5.17370000      -1.64260000
H       -1.36730000       4.82790000      -0.13220000
H       -0.63450000       3.42110000       1.99560000
H        1.98230000       2.93160000       1.73420000
