15
Properties=species:S:1:pos:R:3 gdb_125035=T pbc="F F F"
C       -0.06260000       1.56420000       0.09750000
C       -0.02360000       0.07930000      -0.02330000
C       -0.04140000      -0.74040000      -1.12170000
N       -0.13410000      -0.42490000      -2.47310000
N       -0.02430000      -2.05190000      -0.70400000
N        0.00580000      -2.10230000       0.58280000
N        0.01850000      -0.81410000       1.03500000
C        0.07670000      -0.52010000       2.40960000
O        0.10170000      -1.33770000       3.28170000
H        0.87990000       1.98630000       0.46650000
H       -0.25860000       1.99690000      -0.88680000
H       -0.86230000       1.90400000       0.76460000
H        0.51330000       0.28990000      -2.77730000
H       -0.03050000      -1.25540000      -3.04260000
H        0.09770000       0.57060000       2.57800000
