17
Properties=species:S:1:pos:R:3 gdb_33060=T pbc="F F F"
O        0.16290000       1.38110000      -0.12050000
C        0.09910000      -0.03220000      -0.07190000
C       -1.34100000      -0.54240000       0.13250000
C       -1.43600000      -2.02060000       0.19140000
C       -1.74440000      -2.89860000       1.15410000
N       -1.62920000      -4.17360000       0.60310000
C       -1.25490000      -4.08000000      -0.71920000
N       -1.06960000      -5.03940000      -1.52600000
O       -1.12710000      -2.72620000      -0.97240000
H       -0.25380000       1.67020000      -0.93850000
H        0.53030000      -0.49370000      -0.97160000
H        0.71650000      -0.33590000       0.77940000
H       -1.74020000      -0.12150000       1.06030000
H       -1.96740000      -0.16530000      -0.68880000
H       -2.03250000      -2.73470000       2.17810000
H       -1.82640000      -5.05210000       1.04530000
H       -0.80000000      -4.69260000      -2.44220000
