19
Properties=species:S:1:pos:R:3 gdb_78039=T pbc="F F F"
C        0.04470000       1.52500000       0.06590000
C        0.05480000       0.01570000      -0.09880000
C       -1.18790000      -0.65030000       0.46190000
C        0.70440000      -0.70150000      -1.22200000
C        2.00870000      -0.08410000      -1.72880000
O        2.05120000       1.02870000      -2.57990000
C        2.41580000      -0.01140000      -0.24590000
N        3.34660000       0.45210000       0.46010000
N        1.28270000      -0.78780000       0.21120000
H        0.97370000       2.00750000      -0.24340000
H       -0.78570000       1.95820000      -0.50180000
H       -0.10390000       1.78160000       1.12010000
H       -2.08120000      -0.30180000      -0.06770000
H       -1.12450000      -1.73660000       0.36950000
H       -1.30270000      -0.40670000       1.52260000
H        0.23930000      -1.57350000      -1.67030000
H        2.60860000      -0.85790000      -2.22020000
H        1.45120000       1.70000000      -2.24090000
H        4.02310000       0.94060000      -0.13160000
