19
Properties=species:S:1:pos:R:3 gdb_56746=T pbc="F F F"
N       -0.02890000       1.48750000       0.08410000
C        0.01120000       0.02630000      -0.04880000
C       -1.35170000      -0.51200000       0.10030000
N       -2.41660000      -0.95400000       0.17230000
C        0.62720000      -0.50030000      -1.34100000
C        2.07450000      -0.21650000      -1.85030000
C        1.41140000      -1.12560000      -2.92510000
C        0.84840000      -1.98640000      -1.75840000
C        0.13910000      -0.23890000      -2.79960000
H        0.92040000       1.84440000       0.02050000
H       -0.54240000       1.88500000      -0.69820000
H        0.60110000      -0.35990000       0.79370000
H        2.29800000       0.81160000      -2.14950000
H        2.89230000      -0.65440000      -1.27070000
H        1.86880000      -1.48580000      -3.84570000
H        1.57520000      -2.55450000      -1.17120000
H       -0.05090000      -2.57160000      -1.96400000
H       -0.81160000      -0.69630000      -3.08380000
H        0.22090000       0.78720000      -3.16970000
