17
Properties=species:S:1:pos:R:3 gdb_79478=T pbc="F F F"
C       -0.17510000       1.61430000      -0.00980000
C       -0.02700000       0.10450000       0.00660000
C        1.19760000      -0.56320000      -0.63540000
C        2.16480000      -0.24880000       0.54790000
C        2.52120000      -1.72710000       0.62960000
N        1.03990000      -1.82410000       0.26570000
C        0.75250000      -0.57170000       1.15220000
C        0.40030000      -0.69070000       2.54360000
N        0.11540000      -0.75630000       3.66270000
H        0.76980000       2.11970000       0.21310000
H       -0.51530000       1.95610000      -0.99260000
H       -0.91370000       1.93990000       0.72930000
H       -0.96530000      -0.41290000      -0.21910000
H        1.46060000      -0.68010000      -1.68670000
H        2.76940000       0.64500000       0.72360000
H        3.17770000      -2.13700000      -0.14320000
H        2.75930000      -2.15190000       1.60880000
