16
Properties=species:S:1:pos:R:3 gdb_130945=T pbc="F F F"
O       -0.48290000       0.50440000       0.63910000
C        0.08230000       0.99960000      -0.30100000
C        1.36660000       1.79120000      -0.22720000
C        1.25290000       3.14620000      -0.95510000
C        2.57500000       3.83250000      -1.07890000
N        2.80310000       5.04190000      -0.58800000
N        4.09870000       5.25030000      -0.92870000
C        4.58480000       4.18340000      -1.59100000
N        3.64980000       3.26280000      -1.70660000
H       -0.32670000       0.89300000      -1.33480000
H        1.64920000       1.91670000       0.82130000
H        2.14910000       1.20210000      -0.72520000
H        0.84490000       2.97830000      -1.96020000
H        0.56280000       3.81110000      -0.42910000
H        4.55210000       6.11270000      -0.67560000
H        5.59770000       4.12470000      -1.96040000
