25
Properties=species:S:1:pos:R:3 gdb_88428=T pbc="F F F"
C       -1.84280000       0.28260000       1.76180000
C       -0.91380000      -0.64680000       1.01250000
C       -0.04250000      -0.11770000      -0.09640000
C        0.59510000      -0.60070000       1.18930000
C        1.30850000       0.32480000       2.15700000
C        1.67900000       1.70440000       1.63600000
C        0.97500000       0.23520000       3.63730000
C        2.29730000      -0.28900000       3.13940000
C        2.61180000      -1.76760000       3.19180000
H       -1.38750000       1.26340000       1.92560000
H       -2.77190000       0.43700000       1.20140000
H       -2.11150000      -0.12080000       2.74410000
H       -1.32440000      -1.64160000       0.85470000
H        0.09660000      -0.71130000      -0.99390000
H       -0.07420000       0.95100000      -0.28020000
H        1.07090000      -1.57180000       1.09030000
H        0.79540000       2.30400000       1.38950000
H        2.24690000       2.26240000       2.38740000
H        2.29320000       1.63590000       0.73130000
H        0.95190000       1.15170000       4.21880000
H        0.23560000      -0.50020000       3.93800000
H        3.15900000       0.34080000       3.34980000
H        1.71450000      -2.38210000       3.07450000
H        3.32260000      -2.06040000       2.40990000
H        3.05840000      -2.02860000       4.15770000
