19
Properties=species:S:1:pos:R:3 gdb_75439=T pbc="F F F"
C       -0.01020000       1.53450000       0.06440000
C        0.00490000       0.03350000      -0.02200000
C       -0.01410000      -0.63000000      -1.17990000
C       -0.03200000      -2.13550000      -1.28150000
N       -0.28120000      -2.83250000      -0.01530000
C        0.43590000      -2.18820000       1.08700000
C        0.04230000      -0.70780000       1.29730000
C        0.25180000      -2.96040000       2.32300000
N        0.08940000      -3.53770000       3.31040000
H        0.88860000       1.91240000       0.56840000
H       -0.06670000       1.99440000      -0.92560000
H       -0.86680000       1.88710000       0.65350000
H       -0.00760000      -0.07970000      -2.11870000
H       -0.79900000      -2.45900000      -1.99450000
H        0.92390000      -2.49250000      -1.69570000
H       -1.27590000      -2.81110000       0.19050000
H        1.50430000      -2.22600000       0.83500000
H        0.75440000      -0.22880000       1.98120000
H       -0.93490000      -0.65170000       1.79700000
