19
Properties=species:S:1:pos:R:3 gdb_22499=T pbc="F F F"
C        0.92120000       1.05100000       0.28820000
N        0.71490000      -0.29240000      -0.25180000
H        2.05630000      -1.39430000      -1.17360000
H        0.32390000      -0.88850000       0.47290000
C       -0.17190000      -0.32600000      -1.42070000
C       -0.25130000      -1.74010000      -2.01280000
C        1.02690000      -2.26400000      -2.63100000
C        0.97050000      -3.06790000      -3.85190000
O        1.89830000      -3.58650000      -4.43150000
N        2.17690000      -1.99460000      -2.02020000
O        3.33630000      -2.32490000      -2.33570000
H        1.45710000       1.65890000      -0.44740000
H       -0.01760000       1.57100000       0.53830000
H        1.53630000       0.99190000       1.18960000
H       -1.18800000       0.03110000      -1.18200000
H        0.23990000       0.36190000      -2.16900000
H       -0.62300000      -2.42580000      -1.23480000
H       -1.02220000      -1.74460000      -2.79100000
H       -0.07280000      -3.16910000      -4.23610000
