15
Properties=species:S:1:pos:R:3 gdb_74823=T pbc="F F F"
C        0.00360000       1.42370000       0.10550000
C       -0.02190000      -0.05440000      -0.04920000
N       -0.06560000      -0.72070000      -1.13550000
C       -0.01650000      -2.11040000      -0.78560000
C        1.20980000      -2.58640000      -0.05110000
C        0.01860000      -2.12920000       0.75670000
O        0.00270000      -0.76370000       1.12820000
C       -0.71400000      -2.99900000       1.62420000
N       -1.29920000      -3.73010000       2.30310000
H        0.94580000       1.74400000       0.56130000
H       -0.10320000       1.89210000      -0.87220000
H       -0.80650000       1.74800000       0.76540000
H       -0.60010000      -2.80040000      -1.38170000
H        1.39510000      -3.65410000      -0.04830000
H        2.09110000      -1.95380000      -0.04030000
