14
Properties=species:S:1:pos:R:3 gdb_12160=T pbc="F F F"
N       -0.01110000       1.30230000       0.27630000
C        0.06980000      -0.08640000      -0.09460000
C       -1.27400000      -0.86180000      -0.29520000
O       -0.80560000      -1.29970000      -1.62240000
C        0.32950000      -0.51920000      -1.53530000
N        1.20490000      -0.24530000      -2.38880000
C       -1.58780000      -1.95590000       0.59420000
C       -1.83810000      -2.85300000       1.35340000
H        0.90710000       1.65370000       0.52470000
H       -0.33550000       1.86530000      -0.50430000
H        0.72040000      -0.61430000       0.60600000
H       -2.12580000      -0.18500000      -0.41560000
H        1.01930000      -0.70200000      -3.28360000
H       -2.06480000      -3.64840000       2.02020000
