16
Properties=species:S:1:pos:R:3 gdb_35925=T pbc="F F F"
N       -0.01630000      -1.11570000      -0.19720000
C       -0.02130000       0.03220000      -0.07630000
C       -0.00010000       1.50050000       0.01540000
O       -0.72380000       1.87490000       1.16580000
C       -0.70110000       3.28210000       1.37600000
C        0.69300000       3.76950000       1.77900000
C        1.76190000       3.16670000       0.88470000
O        2.16920000       1.82930000       1.20740000
C        1.43430000       2.02480000       0.01410000
H       -0.49070000       1.89540000      -0.89330000
H       -1.03470000       3.79820000       0.46080000
H       -1.43580000       3.47680000       2.16020000
H        0.72870000       4.86260000       1.71990000
H        0.90920000       3.48830000       2.81470000
H        2.58690000       3.81490000       0.59270000
H        1.97810000       1.85770000      -0.91570000
