18
Properties=species:S:1:pos:R:3 gdb_11066=T pbc="F F F"
C        0.03240000       1.47170000       0.06970000
C       -0.02840000      -0.03270000      -0.03860000
C        0.61370000      -0.66780000      -1.28720000
O        0.12560000      -2.02420000      -1.26480000
C       -0.69030000      -2.11940000      -0.08850000
C        0.23550000      -2.00850000       1.12900000
O        0.62840000      -0.62220000       1.10540000
C       -1.39030000      -0.75490000      -0.04040000
H        1.07130000       1.81570000       0.07350000
H       -0.48410000       1.94070000      -0.77280000
H       -0.43700000       1.80460000       0.99930000
H        0.30860000      -0.18100000      -2.22290000
H        1.70690000      -0.65560000      -1.21350000
H       -1.29500000      -3.02370000      -0.15030000
H       -0.26800000      -2.23730000       2.07780000
H        1.11290000      -2.65540000       1.02150000
H       -1.96170000      -0.56930000       0.87150000
H       -1.99870000      -0.56210000      -0.92600000
