19
Properties=species:S:1:pos:R:3 gdb_116934=T pbc="F F F"
C        0.36900000       1.47560000       0.15390000
O        0.38710000       0.06730000       0.18280000
C        0.25410000      -0.49070000      -1.11020000
C        0.27650000      -1.94510000      -1.03630000
C        0.29190000      -3.14860000      -0.99470000
C        0.30930000      -4.59400000      -0.95590000
C       -0.72170000      -5.38410000      -1.81210000
O        0.31910000      -6.19310000      -2.38920000
C        1.34830000      -5.36250000      -1.82160000
H        1.19630000       1.88440000      -0.44830000
H       -0.57690000       1.86560000      -0.25500000
H        0.47770000       1.82090000       1.18430000
H       -0.68870000      -0.15560000      -1.57810000
H        1.06930000      -0.13740000      -1.76650000
H        0.31780000      -4.94420000       0.08010000
H       -1.45710000      -5.98160000      -1.26320000
H       -1.23380000      -4.76830000      -2.56190000
H        1.84110000      -4.73680000      -2.57620000
H        2.10070000      -5.94510000      -1.27960000
