20
Properties=species:S:1:pos:R:3 gdb_107185=T pbc="F F F"
C       -0.16230000       1.46490000      -0.18560000
N        0.10610000       0.04420000      -0.02310000
C        1.43720000      -0.50780000      -0.15020000
C        2.53700000       0.33670000       0.46840000
C        3.11240000      -0.39030000       1.65480000
C        1.79090000       0.32030000       1.81660000
C        1.60410000       1.41500000       2.83240000
O        1.51500000       0.92460000       4.16650000
C        0.69500000      -0.52530000       1.17440000
H        0.63440000       2.12830000       0.17590000
H       -0.31760000       1.66780000      -1.25020000
H       -1.08810000       1.71420000       0.34290000
H        1.59130000      -1.32560000      -0.84650000
H        3.04520000       1.17530000       0.00640000
H        3.15390000      -1.47630000       1.65480000
H        3.95840000       0.08540000       2.14370000
H        2.47510000       2.07980000       2.82480000
H        0.72460000       2.02700000       2.58410000
H        0.73980000       0.35640000       4.21750000
H        0.18100000      -1.36010000       1.64150000
