17
Properties=species:S:1:pos:R:3 gdb_26760=T pbc="F F F"
C       -0.03190000       1.48860000       0.12630000
C       -0.00570000       0.00380000      -0.03000000
C       -0.00540000      -0.79260000      -1.17000000
C       -0.03390000      -0.32440000      -2.59520000
C        0.04900000      -2.13960000      -0.73670000
C        0.08150000      -2.14200000       0.64730000
N        0.04880000      -0.82380000       1.05650000
C        0.12640000      -3.20670000       1.56920000
N        0.16430000      -4.07260000       2.34070000
H        0.95730000       1.89510000       0.37150000
H       -0.35850000       1.96400000      -0.80100000
H       -0.72110000       1.79930000       0.91950000
H        0.97430000      -0.20750000      -3.01100000
H       -0.56390000      -1.04020000      -3.23050000
H       -0.53930000       0.64080000      -2.69670000
H        0.05750000      -3.02050000      -1.36010000
H        0.04780000      -0.52690000       2.01790000
