15
Properties=species:S:1:pos:R:3 gdb_44668=T pbc="F F F"
O       -0.05110000       0.01860000       0.27750000
C       -0.03670000       1.20080000       0.06360000
N       -1.14590000       2.02540000      -0.13160000
C       -0.77350000       3.40620000       0.24220000
C       -0.69810000       3.47050000       1.76400000
C        0.53210000       3.14370000       2.17710000
C        1.46310000       3.00570000       1.02140000
C        0.71030000       3.39620000      -0.19090000
N        1.14540000       2.00670000      -0.09400000
H       -2.01890000       1.64140000       0.20600000
H       -1.40880000       4.14170000      -0.25080000
H       -1.57610000       3.56760000       2.39230000
H        0.83720000       2.97070000       3.20150000
H        2.52920000       3.15740000       1.13780000
H        1.08530000       4.00740000      -1.00430000
