17
Properties=species:S:1:pos:R:3 gdb_66126=T pbc="F F F"
O        0.12160000       1.34560000       0.20550000
C        0.04730000      -0.06580000       0.01790000
C        0.63710000      -0.70170000       1.31830000
O       -0.11050000      -1.86850000       1.60770000
C       -1.37750000      -1.73620000       1.01750000
C       -2.17340000      -0.48420000       1.26370000
C       -1.36930000      -0.64610000      -0.01480000
C        0.77820000      -0.46510000      -1.18790000
C        1.36010000      -0.76680000      -2.19590000
H       -0.09720000       1.76540000      -0.63340000
H        1.68750000      -0.97930000       1.21760000
H        0.54200000       0.05150000       2.11100000
H       -1.86400000      -2.69460000       0.88370000
H       -3.25170000      -0.55690000       1.17400000
H       -1.83040000       0.23330000       2.00040000
H       -1.86440000      -0.74130000      -0.97290000
H        1.88590000      -1.04030000      -3.07730000
