17
Properties=species:S:1:pos:R:3 gdb_33096=T pbc="F F F"
C       -0.01040000       1.46560000      -0.00180000
C        0.02660000      -0.05150000       0.02130000
O        0.65490000      -0.48170000      -1.18820000
C        0.78740000      -1.81140000      -1.35960000
C        1.35980000      -2.41990000      -2.44220000
N        1.26000000      -3.78980000      -2.15590000
C        0.65340000      -3.89340000      -0.95870000
O        0.41920000      -5.10290000      -0.41900000
N        0.34580000      -2.73260000      -0.43210000
H        1.00110000       1.87750000      -0.06180000
H       -0.57900000       1.82690000      -0.86340000
H       -0.48470000       1.84260000       0.90940000
H        0.59020000      -0.42580000       0.88450000
H       -0.98240000      -0.47630000       0.08550000
H        1.80680000      -2.04500000      -3.34410000
H        1.57610000      -4.55490000      -2.72540000
H       -0.01720000      -4.94040000       0.42620000
