21
Properties=species:S:1:pos:R:3 gdb_103847=T pbc="F F F"
C       -0.22950000       1.67250000      -0.00650000
C       -0.23750000       0.17020000       0.16020000
C       -1.40810000      -0.54210000      -0.49580000
O       -1.34890000      -0.42080000      -1.90720000
O        1.01270000      -0.50460000      -0.11710000
C        0.50290000      -0.52620000       1.22750000
C        1.30710000       0.14220000       2.28870000
C        0.92470000      -0.07230000       3.73590000
C        2.17910000      -0.69950000       3.19160000
H        0.73000000       2.10520000       0.27970000
H       -0.42310000       1.91990000      -1.05420000
H       -1.01770000       2.13120000       0.60050000
H       -1.41520000      -1.59770000      -0.18610000
H       -2.35760000      -0.09140000      -0.18690000
H       -0.49020000      -0.77390000      -2.16960000
H        0.12070000      -1.50600000       1.52900000
H        1.69250000       1.12100000       2.02800000
H        1.01370000       0.76880000       4.41370000
H        0.08140000      -0.72250000       3.94570000
H        2.18280000      -1.77250000       3.03070000
H        3.13680000      -0.29220000       3.49450000
