15
Properties=species:S:1:pos:R:3 gdb_79496=T pbc="F F F"
O       -0.03850000       1.46860000      -0.08320000
C        0.04660000       0.06620000      -0.04180000
C        0.05420000      -0.61400000       1.34150000
C       -1.47570000      -0.36880000       1.53750000
O       -1.77860000      -1.75520000       1.85140000
C       -0.76340000      -1.82980000       0.81320000
C       -1.33410000      -0.61750000      -0.01840000
C       -2.35840000      -0.63030000      -1.01220000
C       -3.21470000      -0.63760000      -1.85690000
H        0.85110000       1.83110000      -0.03020000
H        0.75530000      -0.32790000      -0.78190000
H        0.81440000      -0.63240000       2.12020000
H       -2.00860000       0.42310000       2.05810000
H       -0.43690000      -2.80610000       0.45930000
H       -3.97530000      -0.64390000      -2.59790000
