14
Properties=species:S:1:pos:R:3 gdb_129970=T pbc="F F F"
N        0.06680000       1.30450000       0.36400000
C       -0.04980000      -0.00620000       0.04020000
N       -1.09000000      -0.78070000       0.19580000
C       -0.63750000      -1.95400000      -0.35840000
N        0.57950000      -1.92300000      -0.83500000
O        0.99200000      -0.59580000      -0.55630000
C       -1.47810000      -3.17400000      -0.39560000
C       -0.99920000      -4.42400000      -0.99870000
O       -1.05150000      -4.27640000       0.41760000
H        1.00020000       1.67240000       0.45340000
H       -0.61140000       1.64870000       1.02430000
H       -2.54500000      -2.96770000      -0.34990000
H       -1.72470000      -5.11310000      -1.42840000
H       -0.00090000      -4.45040000      -1.42920000
