17
Properties=species:S:1:pos:R:3 gdb_82984=T pbc="F F F"
O        0.12300000       1.36750000       0.26320000
C       -0.01400000       0.00200000       0.05540000
C       -1.42910000      -0.63210000      -0.00220000
O       -2.34830000       0.16420000      -0.78860000
C       -2.04300000      -0.57170000      -2.00040000
C       -1.24160000       0.25880000      -2.98330000
O        0.03760000       0.44630000      -2.37530000
C        0.26680000      -0.55640000      -1.38220000
C       -1.00780000      -1.43940000      -1.26320000
H       -0.22020000       1.78790000      -0.53620000
H        0.59600000      -0.52750000       0.79650000
H       -1.89560000      -1.02560000       0.90300000
H       -2.93310000      -1.04370000      -2.42740000
H       -1.14310000      -0.27240000      -3.94250000
H       -1.68920000       1.24080000      -3.16590000
H        1.23550000      -1.02790000      -1.56000000
H       -0.96680000      -2.51910000      -1.37130000
