19
Properties=species:S:1:pos:R:3 gdb_81411=T pbc="F F F"
O        0.20740000       1.41880000       0.02210000
C        0.03690000       0.02590000      -0.01210000
C        0.17120000      -0.76590000       1.32800000
C       -1.31530000      -0.38280000       1.60020000
C       -1.43090000      -0.52240000       0.05260000
C       -1.16460000      -2.04280000      -0.15610000
C        0.03500000      -2.21710000       0.83200000
C       -2.38910000      -2.86590000       0.15890000
O       -2.58260000      -3.45890000       1.19160000
H       -0.22650000       1.77490000       0.80390000
H        0.64600000      -0.32080000      -0.85290000
H        0.96910000      -0.54770000       2.03830000
H       -1.90860000      -1.05360000       2.22490000
H       -1.45480000       0.64360000       1.94860000
H       -2.23600000      -0.06500000      -0.52360000
H       -0.89410000      -2.23090000      -1.20210000
H        0.93510000      -2.57540000       0.32540000
H       -0.22050000      -2.91480000       1.63240000
H       -3.16030000      -2.86690000      -0.64570000
