21
Properties=species:S:1:pos:R:3 gdb_37965=T pbc="F F F"
C        0.04510000       1.58610000      -0.13350000
C        1.57700000       1.53900000      -0.11570000
C        2.09100000       0.92820000       1.16600000
C        1.47140000       1.11460000       2.55080000
O        0.71060000       0.01740000       3.02550000
C       -0.62190000      -0.02870000       2.55360000
C       -0.77450000      -0.64770000       1.16140000
C        0.01510000       0.02320000       0.03620000
C        1.55150000       0.02190000       0.09450000
H       -0.42750000       2.18760000       0.64950000
H       -0.36530000       1.90210000      -1.09470000
H        2.22300000       2.12680000      -0.75710000
H        3.17840000       0.90290000       1.18650000
H        2.27780000       1.24610000       3.27950000
H        0.85930000       2.02990000       2.58280000
H       -1.17920000      -0.63440000       3.27720000
H       -1.06160000       0.98210000       2.57360000
H       -0.46990000      -1.70110000       1.21310000
H       -1.84610000      -0.64460000       0.91470000
H       -0.30140000      -0.42010000      -0.91330000
H        2.17730000      -0.74160000      -0.35370000
