17
Properties=species:S:1:pos:R:3 gdb_83326=T pbc="F F F"
C       -0.11500000       1.57020000       0.01810000
C        0.04600000       0.05920000       0.07270000
C        1.18370000      -0.62410000      -0.74650000
O        2.37370000       0.03990000      -0.28700000
C        2.20420000       0.05890000       1.15220000
C        0.83010000      -0.61480000       1.28910000
O        0.35210000      -0.75900000       2.57180000
C        1.01200000      -1.76520000       0.28120000
O        0.82410000      -2.94560000       0.30370000
H        0.85200000       2.07270000      -0.05130000
H       -0.70430000       1.86030000      -0.85710000
H       -0.63600000       1.93450000       0.90950000
H       -0.90760000      -0.45680000      -0.08200000
H        1.18800000      -0.74210000      -1.82560000
H        2.99710000      -0.51670000       1.64230000
H        2.22360000       1.08790000       1.52600000
H       -0.18560000      -1.55940000       2.60470000
