18
Properties=species:S:1:pos:R:3 gdb_36503=T pbc="F F F"
N       -0.01780000      -1.18640000       0.01430000
C       -0.00860000      -0.03250000       0.06690000
C        0.00010000       1.42820000       0.10780000
C        1.41600000       2.01480000       0.03820000
C        1.40780000       3.54190000      -0.09800000
C        2.78880000       4.08390000       0.16700000
C        3.72380000       3.34690000       0.76060000
C        3.44740000       1.95210000       1.24710000
O        2.06820000       1.62530000       1.23300000
H       -0.59990000       1.80890000      -0.72570000
H       -0.47400000       1.76220000       1.03720000
H        1.94090000       1.58450000      -0.83030000
H        1.07480000       3.82180000      -1.10550000
H        0.68060000       3.97850000       0.60180000
H        3.00320000       5.09900000      -0.15460000
H        4.72940000       3.72710000       0.91760000
H        4.02170000       1.21980000       0.65140000
H        3.77160000       1.83530000       2.28760000
