18
Properties=species:S:1:pos:R:3 gdb_6194=T pbc="F F F"
C        0.14920000       1.46760000       0.09550000
C       -0.05750000      -0.05460000       0.01020000
C       -1.54400000      -0.38960000      -0.13350000
C        0.77990000      -0.63630000      -1.15320000
O        2.09580000      -0.86970000      -0.62910000
C        2.05790000      -0.97930000       0.72990000
O        3.03250000      -1.22120000       1.37880000
C        0.62570000      -0.75270000       1.20080000
H        1.21190000       1.72410000       0.15670000
H       -0.26680000       1.96780000      -0.78540000
H       -0.34720000       1.87800000       0.98070000
H       -1.95900000       0.04690000      -1.04910000
H       -1.70860000      -1.47150000      -0.17170000
H       -2.11850000       0.00820000       0.70930000
H        0.36900000      -1.58880000      -1.51080000
H        0.87440000       0.04590000      -2.00190000
H        0.61690000      -0.18500000       2.13290000
H        0.17990000      -1.73370000       1.40530000
