20
Properties=species:S:1:pos:R:3 gdb_63817=T pbc="F F F"
C       -0.04900000       1.56910000      -0.06240000
C        0.04610000       0.05250000       0.00290000
C       -1.29310000      -0.58900000      -0.36470000
O        1.09500000      -0.51660000      -0.87150000
C        1.53700000      -1.40990000       0.17920000
C        2.78310000      -0.96220000       0.96110000
C        2.87470000       0.49860000       1.00650000
N        1.91960000      -0.15550000       1.93750000
C        0.68600000      -0.67510000       1.20920000
H       -0.18410000       1.88230000      -1.10310000
H       -0.92080000       1.90870000       0.50560000
H        0.82680000       2.07540000       0.34130000
H       -1.57200000      -0.30970000      -1.38540000
H       -1.23260000      -1.68020000      -0.31690000
H       -2.08400000      -0.25690000       0.31580000
H        1.45350000      -2.46580000      -0.08490000
H        3.56010000      -1.63180000       1.31620000
H        3.71010000       0.92910000       1.55020000
H        2.54060000       1.06510000       0.14810000
H        0.02350000      -1.15750000       1.92690000
