18
Properties=species:S:1:pos:R:3 gdb_127410=T pbc="F F F"
C       -0.14730000       1.50390000      -0.07270000
N        0.07400000       0.07560000       0.01360000
C        0.74820000      -0.54560000      -1.15490000
C        1.32800000      -1.90260000      -0.65200000
C        1.47850000      -1.59660000       0.80990000
N        2.07140000      -2.13730000       1.86150000
N        1.71000000      -1.31450000       2.87150000
C        0.90820000      -0.26360000       2.48110000
C        0.74070000      -0.44380000       1.12850000
H        0.79150000       2.08350000      -0.13650000
H       -0.74980000       1.72990000      -0.95800000
H       -0.70330000       1.84600000       0.80530000
H        0.04360000      -0.65950000      -1.98370000
H        1.57430000       0.10110000      -1.49760000
H        0.61490000      -2.71960000      -0.81700000
H        2.25640000      -2.16470000      -1.16490000
H        2.08190000      -1.48330000       3.78940000
H        0.56160000       0.47210000       3.18750000
