18
Properties=species:S:1:pos:R:3 gdb_14178=T pbc="F F F"
C       -0.07260000       1.58550000       0.04220000
C        0.02350000       0.08190000      -0.02780000
O       -1.11640000      -0.60490000       0.42970000
C        0.67080000      -0.66840000      -1.17310000
C        1.62990000       0.06120000      -2.11220000
C        2.92140000       0.15340000      -1.26990000
O        2.50860000       0.11630000       0.10190000
C        1.33280000      -0.64810000       0.18610000
H        0.87690000       2.06120000      -0.20800000
H       -0.85210000       1.96020000      -0.62900000
H       -0.33020000       1.89460000       1.06270000
H       -1.20780000      -0.42390000       1.37240000
H        0.14520000      -1.55000000      -1.51860000
H        1.78830000      -0.50560000      -3.03340000
H        1.26440000       1.05300000      -2.39610000
H        3.58510000      -0.69770000      -1.48430000
H        3.48550000       1.07790000      -1.42120000
H        1.37730000      -1.51440000       0.84060000
