17
Properties=species:S:1:pos:R:3 gdb_127924=T pbc="F F F"
C        0.23180000       1.40840000       0.16980000
N        0.20460000      -0.04030000       0.13540000
C        0.43890000      -0.60880000      -0.98990000
N        0.72120000       0.00620000      -2.20320000
N        0.96420000      -0.62860000      -3.37640000
C        0.92740000      -1.92360000      -3.35150000
C        1.18830000      -2.67760000      -4.61860000
N        0.65930000      -2.69400000      -2.21890000
C        0.43270000      -2.06210000      -1.12080000
H        1.21450000       1.82170000      -0.11650000
H       -0.51880000       1.86350000      -0.49960000
H        0.01610000       1.75330000       1.18360000
H        0.75990000       1.01020000      -2.26940000
H        2.04590000      -3.34670000      -4.49150000
H        0.32830000      -3.30800000      -4.86810000
H        1.38410000      -1.98800000      -5.44020000
H        0.21900000      -2.62260000      -0.21230000
