18
Properties=species:S:1:pos:R:3 gdb_32617=T pbc="F F F"
C       -0.00340000       1.55370000       0.02410000
C       -0.01730000       0.02300000      -0.00400000
N       -1.35950000      -0.53870000       0.01120000
C       -2.10680000      -0.78750000       1.14020000
C       -3.34730000      -1.22570000       0.75430000
C       -3.36610000      -1.24410000      -0.67770000
C       -2.11730000      -0.80800000      -1.09330000
C       -4.43640000      -1.64000000      -1.51240000
C       -5.35670000      -1.97900000      -2.21300000
H        1.02700000       1.92220000       0.01150000
H       -0.52710000       1.96330000      -0.84430000
H       -0.49320000       1.93130000       0.92600000
H        0.48940000      -0.34720000      -0.90040000
H        0.52410000      -0.37940000       0.85810000
H       -1.68330000      -0.63410000       2.12040000
H       -4.15760000      -1.51990000       1.40220000
H       -1.72200000      -0.67890000      -2.08800000
H       -6.16490000      -2.27770000      -2.83240000
