20
Properties=species:S:1:pos:R:3 gdb_52775=T pbc="F F F"
C        0.04940000       1.48690000      -0.00200000
C        0.01500000       0.03170000       0.03030000
C       -0.01040000      -1.17340000       0.05890000
C        0.00370000      -2.61470000       0.05090000
C        1.11250000      -3.23280000      -0.78440000
C       -0.46120000      -3.40310000       1.22650000
C       -1.56130000      -2.69980000       2.01390000
C       -2.33830000      -2.63820000       0.67300000
N       -1.26460000      -3.40410000      -0.05920000
H        1.02210000       1.86740000       0.32920000
H       -0.12890000       1.86860000      -1.01350000
H       -0.71450000       1.91750000       0.65460000
H        2.09390000      -2.93740000      -0.40150000
H        1.03400000      -4.32270000      -0.76370000
H        1.03370000      -2.90290000      -1.82400000
H        0.09410000      -4.27790000       1.55490000
H       -2.03760000      -3.34700000       2.75240000
H       -1.28590000      -1.75360000       2.48670000
H       -3.25930000      -3.22380000       0.66870000
H       -2.53270000      -1.64750000       0.25470000
