16
Properties=species:S:1:pos:R:3 gdb_15814=T pbc="F F F"
C       -0.42500000       1.31620000       0.39970000
C        0.14710000      -0.04400000       0.05250000
O        0.37010000      -0.75220000       1.29040000
C        0.86500000      -1.99170000       1.17180000
O        1.13560000      -2.53070000       0.12690000
C        1.07640000      -2.65060000       2.50490000
C        1.58960000      -1.89160000       3.66220000
O        0.22650000      -2.27770000       3.58590000
H        0.27090000       1.88580000       1.02190000
H       -0.61160000       1.88360000      -0.51680000
H       -1.36870000       1.21500000       0.94250000
H       -0.53530000      -0.63200000      -0.56880000
H        1.09700000       0.03240000      -0.48590000
H        1.29820000      -3.71130000       2.41680000
H        2.19130000      -2.41420000       4.40400000
H        1.77940000      -0.82650000       3.55100000
