18
Properties=species:S:1:pos:R:3 gdb_73383=T pbc="F F F"
C        0.00510000       1.44710000      -0.03660000
C       -0.00420000      -0.06040000       0.03950000
C       -1.26270000      -0.83190000      -0.38120000
C       -1.16640000      -2.14720000       0.44700000
N        0.25050000      -2.20990000       0.88700000
C        0.66320000      -0.80130000       1.13840000
C        1.38070000      -0.76390000      -0.20430000
C        1.10380000      -2.22390000      -0.30140000
O        1.39340000      -3.13230000      -1.02120000
H        0.94040000       1.86370000       0.34990000
H       -0.11260000       1.79140000      -1.06940000
H       -0.81930000       1.86670000       0.55030000
H       -2.15880000      -0.25630000      -0.12800000
H       -1.28730000      -1.02110000      -1.45890000
H       -1.81090000      -2.11410000       1.32980000
H       -1.40690000      -3.04530000      -0.12480000
H        0.99070000      -0.45900000       2.11060000
H        2.24140000      -0.19540000      -0.53470000
