14
Properties=species:S:1:pos:R:3 gdb_131178=T pbc="F F F"
O        0.20440000       1.32060000       0.01240000
C        0.04710000      -0.01980000       0.00880000
C       -1.13720000      -0.68240000      -0.02380000
O       -2.31670000      -0.02320000      -0.05700000
C       -1.16260000      -2.12130000      -0.02300000
N       -2.33640000      -2.67380000      -0.05590000
C        0.16100000      -2.72090000       0.01450000
N        1.28720000      -2.06560000       0.04530000
N        1.21540000      -0.73060000       0.04170000
H       -0.67770000       1.71440000      -0.01390000
H       -2.97380000      -0.75230000      -0.07400000
H       -2.29110000      -3.69050000      -0.05410000
H        0.25890000      -3.80250000       0.01780000
H        2.09540000      -0.24030000       0.06650000
