23
Properties=species:S:1:pos:R:3 gdb_120729=T pbc="F F F"
C        0.17280000       0.87230000       1.65700000
C       -0.34740000      -0.56650000       1.79530000
C       -0.83000000      -0.85820000       3.22350000
C       -1.46830000      -0.80290000       0.80360000
O       -1.12950000      -0.82580000      -0.58720000
C       -1.66600000      -2.01990000      -0.00740000
C       -0.77810000      -3.24150000       0.00800000
C       -1.33420000      -4.35500000       0.89060000
O       -0.48340000      -5.48060000       0.74630000
H        1.01080000       1.05280000       2.33780000
H        0.51010000       1.06440000       0.63480000
H       -0.61380000       1.59790000       1.89610000
H        0.47630000      -1.24770000       1.55580000
H       -1.66530000      -0.20280000       3.49750000
H       -1.16940000      -1.89350000       3.33210000
H       -0.02690000      -0.68910000       3.94740000
H       -2.36560000      -0.21280000       1.01740000
H       -2.69250000      -2.22530000      -0.32420000
H       -0.68910000      -3.62640000      -1.01520000
H        0.23260000      -2.98610000       0.33590000
H       -1.37710000      -4.01790000       1.93900000
H       -2.36670000      -4.59290000       0.58500000
H       -0.82590000      -6.18990000       1.29800000
