20
Properties=species:S:1:pos:R:3 gdb_102480=T pbc="F F F"
C        0.15340000       1.44450000       0.14120000
N        0.29770000       0.00540000       0.03680000
C        0.39320000      -0.64110000      -1.16010000
O        0.39060000      -0.06040000      -2.23420000
C        0.46130000      -2.16480000      -1.06240000
C       -0.96720000      -2.75470000      -1.18270000
O       -1.03170000      -4.11120000      -0.80900000
C        1.38700000      -2.68810000      -2.16230000
O        1.41110000      -4.11770000      -2.09740000
H        0.98110000       1.88760000       0.70580000
H        0.15930000       1.84430000      -0.87340000
H       -0.78900000       1.71770000       0.62870000
H        0.31040000      -0.54320000       0.88040000
H        0.85480000      -2.46870000      -0.08450000
H       -1.64370000      -2.21290000      -0.51210000
H       -1.32710000      -2.58540000      -2.21100000
H       -0.32810000      -4.55500000      -1.30230000
H        1.01110000      -2.33700000      -3.13020000
H        2.40010000      -2.28270000      -2.02970000
H        1.82550000      -4.45060000      -2.89840000
