20
Properties=species:S:1:pos:R:3 gdb_5976=T pbc="F F F"
C        0.07000000       1.61340000      -0.00130000
C       -0.00190000       0.08210000       0.03540000
C        0.83460000      -0.48520000       1.20570000
C       -1.46010000      -0.44390000       0.07570000
C       -2.27700000      -0.06410000       1.30790000
O       -3.55860000      -0.65460000       1.14360000
C        0.60680000      -0.49620000      -1.23950000
O        1.08980000       0.14090000      -2.13840000
H        1.09850000       1.94470000      -0.16650000
H       -0.53600000       2.01580000      -0.81790000
H       -0.28230000       2.04870000       0.93810000
H        0.46310000      -0.11990000       2.16680000
H        0.80300000      -1.58000000       1.22780000
H        1.88160000      -0.17780000       1.11830000
H       -2.00060000      -0.07860000      -0.80590000
H       -1.45740000      -1.53920000       0.00650000
H       -1.78950000      -0.43270000       2.22290000
H       -2.35490000       1.03010000       1.39310000
H       -4.10010000      -0.41310000       1.90060000
H        0.57680000      -1.61160000      -1.28170000
