19
Properties=species:S:1:pos:R:3 gdb_101412=T pbc="F F F"
C       -0.18650000       1.47820000      -0.58810000
C       -0.08830000       0.04530000      -1.11650000
C        1.33670000      -0.51680000      -1.03050000
O        1.84460000      -0.48090000       0.29650000
C        1.46310000      -1.95480000      -1.54560000
O        0.67700000      -2.88450000      -0.74670000
C       -0.09100000      -3.36290000      -1.87250000
C        0.68100000      -2.40480000      -2.78850000
O        0.67880000      -2.13130000      -3.94880000
H        0.16860000       1.53250000       0.44380000
H        0.42520000       2.16170000      -1.18730000
H       -1.21860000       1.83900000      -0.61980000
H       -0.75660000      -0.61290000      -0.54630000
H       -0.42030000       0.00810000      -2.16170000
H        2.01260000       0.11070000      -1.62470000
H        1.34550000      -1.13840000       0.79780000
H        2.52190000      -2.24510000      -1.55760000
H        0.06690000      -4.42970000      -2.07350000
H       -1.16500000      -3.16210000      -1.77620000
