25
Properties=species:S:1:pos:R:3 gdb_122966=T pbc="F F F"
C       -0.04670000       1.47620000      -0.04110000
C        0.02210000      -0.05080000       0.03300000
C        0.75230000      -0.54160000       1.27570000
O        0.77560000      -1.95220000       1.26380000
C        1.43360000      -2.51430000       2.37750000
C        1.44260000      -4.03570000       2.23140000
C        2.20010000      -4.48070000       0.97570000
C        2.01370000      -4.68010000       3.49450000
O        1.87170000      -6.08840000       3.37750000
H        0.95450000       1.92080000      -0.06580000
H       -0.57610000       1.80280000      -0.94070000
H       -0.57320000       1.89530000       0.82370000
H       -0.98720000      -0.47820000       0.03150000
H        0.53210000      -0.45230000      -0.85020000
H        1.78160000      -0.14140000       1.29880000
H        0.24760000      -0.17370000       2.18690000
H        2.46830000      -2.13090000       2.44290000
H        0.92130000      -2.21910000       3.31030000
H        0.39760000      -4.36120000       2.14640000
H        3.25110000      -4.16870000       1.02760000
H        2.17560000      -5.56800000       0.87980000
H        1.75930000      -4.03130000       0.08350000
H        3.07420000      -4.39720000       3.60700000
H        1.47740000      -4.30370000       4.38100000
H        2.28830000      -6.49700000       4.14140000
