21
Properties=species:S:1:pos:R:3 gdb_95310=T pbc="F F F"
C       -0.05810000       1.53200000      -0.06760000
C        0.00850000       0.01370000       0.00960000
O        0.61460000      -0.43550000      -1.20040000
C        0.87390000      -1.82980000      -1.25840000
C        1.55710000      -2.33440000       0.02220000
C        0.65140000      -2.06240000       1.22670000
C        0.78970000      -0.52940000       1.22900000
C        2.31180000      -0.39020000       1.02760000
O        2.72140000      -1.55430000       0.29230000
H        0.94290000       1.97260000      -0.08400000
H       -0.57570000       1.83690000      -0.98090000
H       -0.60210000       1.93440000       0.79250000
H       -1.02160000      -0.38130000       0.06980000
H       -0.05560000      -2.40100000      -1.42810000
H        1.52890000      -1.97340000      -2.12230000
H        1.86420000      -3.37790000      -0.09530000
H       -0.37820000      -2.40410000       1.09110000
H        1.06000000      -2.51740000       2.13370000
H        0.44060000      -0.05210000       2.14820000
H        2.58660000       0.50770000       0.46460000
H        2.84230000      -0.37350000       1.98850000
