17
Properties=species:S:1:pos:R:3 gdb_66006=T pbc="F F F"
O       -0.02310000       1.64880000       1.02340000
C        0.03490000       0.36170000       0.46530000
C        0.61170000       0.16240000      -0.98050000
C        1.46950000      -1.04120000      -0.47370000
C        1.23660000      -0.48810000       0.92810000
O        1.87650000      -0.42400000       1.94120000
C       -1.30770000      -0.31300000       0.69620000
C       -2.42500000      -0.17510000      -0.24180000
O       -1.67170000      -1.39180000      -0.16260000
H        0.68150000       1.70280000       1.68270000
H       -0.10860000      -0.06780000      -1.76400000
H        1.22000000       1.02340000      -1.26160000
H        0.94490000      -1.98900000      -0.62430000
H        2.50800000      -1.13320000      -0.79530000
H       -1.53800000      -0.46880000       1.75050000
H       -3.44540000      -0.23670000       0.13100000
H       -2.29450000       0.39720000      -1.15780000
