20
Properties=species:S:1:pos:R:3 gdb_60035=T pbc="F F F"
C       -0.07690000       1.54690000      -0.00500000
C        0.02180000       0.01610000       0.00910000
C        0.89870000      -0.47750000       1.16580000
C       -1.39320000      -0.58990000       0.05120000
N       -1.43210000      -2.05200000      -0.06660000
C       -1.59270000      -2.82610000       1.09200000
O       -1.61110000      -4.02280000       1.15560000
C       -1.33140000      -2.60380000      -1.35150000
O       -1.29880000      -3.76850000      -1.63280000
H        0.91610000       1.99970000      -0.07780000
H       -0.67210000       1.90620000      -0.85120000
H       -0.54330000       1.91970000       0.91480000
H        0.48610000      -0.30580000      -0.93380000
H        1.90420000      -0.05200000       1.09490000
H        0.47960000      -0.17590000       2.13340000
H        1.00120000      -1.56650000       1.16560000
H       -1.88620000      -0.31700000       0.99050000
H       -2.00140000      -0.16390000      -0.75390000
H       -1.71500000      -2.17040000       1.97720000
H       -1.29230000      -1.79710000      -2.11160000
