15
Properties=species:S:1:pos:R:3 gdb_4582=T pbc="F F F"
N        0.00900000       1.43380000      -0.05770000
C       -0.01210000       0.02800000      -0.04190000
C       -1.22490000      -0.67320000      -0.02260000
C       -1.25430000      -2.06060000      -0.07270000
C       -0.06640000      -2.78740000      -0.14420000
O       -0.15380000      -4.15400000      -0.18980000
C        1.14670000      -2.10220000      -0.16350000
C        1.17260000      -0.71130000      -0.11250000
H        0.85740000       1.83060000       0.32260000
H       -0.79750000       1.85520000       0.38260000
H       -2.15910000      -0.12140000       0.02940000
H       -2.19630000      -2.59700000      -0.05520000
H        0.73480000      -4.51930000      -0.24130000
H        2.08150000      -2.65480000      -0.21610000
H        2.12730000      -0.19380000      -0.13200000
