16
Properties=species:S:1:pos:R:3 gdb_14933=T pbc="F F F"
O       -0.08720000      -0.03090000       0.03120000
C       -0.01850000       1.17740000       0.03880000
C        1.24220000       1.93830000       0.03950000
C        1.20690000       3.27770000       0.01590000
C        2.45340000       4.11010000       0.02180000
O        3.62620000       3.37110000       0.27660000
C        3.66820000       2.13760000      -0.42970000
C        2.55540000       1.19890000       0.03790000
H       -0.93620000       1.80870000       0.04390000
H        0.25600000       3.80630000      -0.02260000
H        2.52540000       4.65200000      -0.94120000
H        2.39280000       4.87720000       0.80390000
H        3.57820000       2.31700000      -1.51370000
H        4.65740000       1.71470000      -0.23820000
H        2.77440000       0.82140000       1.04410000
H        2.48340000       0.31960000      -0.61100000
