19
Properties=species:S:1:pos:R:3 gdb_106479=T pbc="F F F"
C        0.00220000       1.37180000       0.09210000
O       -0.08820000      -0.04120000      -0.05340000
C        0.59750000      -0.55780000      -1.12720000
C        2.17260000      -0.55840000      -1.27480000
C        1.87100000      -1.74010000      -2.23830000
C        0.69320000      -2.10480000      -1.28980000
C        1.14600000      -1.03450000      -3.40280000
C        0.20230000      -0.16130000      -2.55510000
O       -0.63120000       0.62830000      -2.91270000
H        1.04600000       1.69040000       0.22630000
H       -0.42850000       1.89160000      -0.76860000
H       -0.56060000       1.62590000       0.99240000
H        2.66870000       0.32750000      -1.68030000
H        2.64560000      -0.87550000      -0.34310000
H        2.63680000      -2.46990000      -2.49210000
H        1.02260000      -2.57040000      -0.35900000
H       -0.17040000      -2.63430000      -1.70120000
H        1.80050000      -0.42140000      -4.03060000
H        0.58110000      -1.71040000      -4.05260000
