14
Properties=species:S:1:pos:R:3 gdb_61355=T pbc="F F F"
O        0.32970000       1.55410000      -0.00980000
C        0.10490000       0.15880000      -0.00310000
C        0.62490000      -0.52440000      -1.27840000
C       -0.24690000      -0.17780000      -2.48400000
O       -1.40000000       0.17180000      -2.37230000
C        0.39150000      -0.33720000      -3.77510000
C        0.94540000      -0.48000000      -4.83410000
C        0.68490000      -0.47520000       1.19680000
N        1.17290000      -0.95560000       2.12750000
H        1.27680000       1.71260000       0.07970000
H       -0.98250000       0.04000000       0.02480000
H        1.66870000      -0.25380000      -1.46800000
H        0.60500000      -1.61660000      -1.16550000
H        1.41700000      -0.59840000      -5.78000000
