18
Properties=species:S:1:pos:R:3 gdb_43381=T pbc="F F F"
O       -0.00620000       0.30960000      -1.08100000
C        0.03050000       1.19890000      -0.25220000
C       -1.20600000       1.55800000       0.49400000
C       -1.37500000       2.49590000       1.43680000
C       -0.38080000       3.46920000       2.03090000
N        0.99650000       3.45430000       1.56420000
C        1.11720000       3.48730000       0.07270000
C        1.31820000       1.94790000       0.03320000
C        1.60380000       2.08640000       1.55340000
H       -2.05440000       0.94820000       0.19580000
H       -2.37470000       2.59680000       1.86080000
H       -0.78050000       4.48390000       1.88800000
H       -0.37550000       3.31800000       3.12030000
H        0.25410000       3.89730000      -0.45900000
H        2.01490000       4.03720000      -0.22570000
H        2.10510000       1.54540000      -0.60620000
H        2.67330000       2.14170000       1.77790000
H        1.13550000       1.35980000       2.22310000
