21
Properties=species:S:1:pos:R:3 gdb_121411=T pbc="F F F"
C       -0.04110000       1.37350000       0.00750000
O       -0.02610000      -0.03380000      -0.01270000
C        0.67390000      -0.56240000      -1.11820000
C        0.61900000      -2.08230000      -1.04730000
C       -0.82160000      -2.61030000      -1.10430000
O       -0.83490000      -4.03130000      -1.14550000
C       -0.08780000      -4.51400000      -2.22710000
O        1.26520000      -4.14310000      -2.16550000
C        1.41120000      -2.73140000      -2.19020000
H        0.97660000       1.79150000       0.06180000
H       -0.53480000       1.79030000      -0.88480000
H       -0.59740000       1.68230000       0.89570000
H        0.22430000      -0.20420000      -2.06230000
H        1.72260000      -0.21640000      -1.11190000
H        1.06100000      -2.40600000      -0.09810000
H       -1.38870000      -2.30980000      -0.22260000
H       -1.33020000      -2.20380000      -1.99730000
H       -0.12220000      -5.60420000      -2.18340000
H       -0.52840000      -4.15310000      -3.17810000
H        1.06260000      -2.33540000      -3.16130000
H        2.48250000      -2.52670000      -2.10730000
