20
Properties=species:S:1:pos:R:3 gdb_7499=T pbc="F F F"
C       -0.09640000       1.36510000       0.17030000
O       -0.02630000      -0.04020000       0.13370000
C       -1.27630000      -0.65210000      -0.09980000
C       -1.08710000      -2.16430000      -0.10870000
C       -0.15140000      -2.61750000      -1.22190000
C       -0.82410000      -2.72900000       1.31020000
O       -2.18150000      -3.20980000       1.41740000
C       -2.43740000      -2.90950000       0.03210000
H        0.91230000       1.73890000       0.36150000
H       -0.45490000       1.78090000      -0.78470000
H       -0.76530000       1.71990000       0.97020000
H       -1.99520000      -0.36860000       0.68780000
H       -1.69730000      -0.31640000      -1.06460000
H        0.82110000      -2.12680000      -1.12930000
H        0.00110000      -3.70080000      -1.19190000
H       -0.56180000      -2.36250000      -2.20610000
H       -0.09630000      -3.55100000       1.34230000
H       -0.57610000      -1.99940000       2.08860000
H       -3.35000000      -2.31390000      -0.10120000
H       -2.51510000      -3.81870000      -0.58030000
