15
Properties=species:S:1:pos:R:3 gdb_129398=T pbc="F F F"
N        1.16590000      -0.68080000      -0.16790000
C       -0.01210000       0.02910000       0.06010000
N        0.03350000       1.25300000       0.41330000
C       -1.24660000      -0.78550000      -0.07660000
N       -2.41160000      -0.18340000      -0.20080000
O       -3.35290000      -1.17260000      -0.28220000
C       -2.74350000      -2.37720000      -0.19900000
C       -1.39760000      -2.21280000      -0.07010000
N       -0.37680000      -3.16490000      -0.01990000
H        1.96950000      -0.06640000      -0.20380000
H        1.13690000      -1.34350000      -0.93180000
H       -0.90520000       1.59210000       0.61960000
H       -3.38850000      -3.23950000      -0.24750000
H       -0.69720000      -4.08510000       0.24960000
H        0.39800000      -2.86930000       0.56150000
