15
Properties=species:S:1:pos:R:3 gdb_26645=T pbc="F F F"
N       -0.19480000       1.36730000      -0.11790000
C       -0.02510000      -0.04520000      -0.07570000
C       -1.09610000      -0.89810000      -0.13240000
O       -2.41290000      -0.62890000      -0.23000000
N       -0.64970000      -2.18650000      -0.07430000
C        0.72660000      -2.18800000       0.02150000
C        1.15520000      -0.87540000       0.02370000
C        2.48650000      -0.41270000       0.10670000
C        3.60790000       0.02530000       0.17560000
H        0.29850000       1.77550000      -0.90720000
H        0.18660000       1.81060000       0.71340000
H       -2.46530000       0.33860000      -0.25420000
H       -1.24320000      -2.99700000      -0.09830000
H        1.28380000      -3.10700000       0.08000000
H        4.60100000       0.39420000       0.23720000
