19
Properties=species:S:1:pos:R:3 gdb_79603=T pbc="F F F"
C       -0.07350000       1.57000000       0.06090000
C        0.04030000       0.05870000      -0.05250000
C        0.58690000      -0.81970000      -1.15830000
C        1.53660000      -0.35190000      -2.26020000
C        1.94850000       1.08490000      -2.36840000
C        2.82430000       0.10000000      -1.60510000
C        2.66770000      -0.12480000      -0.11340000
O        3.54920000       0.01100000       0.70010000
C        1.31080000      -0.74380000       0.17440000
H        0.89100000       2.07980000       0.03550000
H       -0.71200000       1.99220000      -0.72250000
H       -0.53020000       1.81880000       1.02430000
H       -0.81010000      -0.42950000       0.42020000
H       -0.00930000      -1.69030000      -1.40760000
H        1.55310000      -0.95970000      -3.15740000
H        2.36130000       1.40200000      -3.32080000
H        1.40470000       1.86160000      -1.85520000
H        3.81180000      -0.10070000      -2.00350000
H        1.31200000      -1.52560000       0.92570000
