21
Properties=species:S:1:pos:R:3 gdb_81600=T pbc="F F F"
C       -0.06610000       1.56660000      -0.40200000
C        0.06330000       0.06810000      -0.16430000
C        1.24990000      -0.76710000      -0.75310000
C        2.16240000      -0.13760000       0.34130000
C        0.83700000      -0.51420000       1.06750000
C        0.93070000      -1.87450000       0.30210000
C       -0.26920000      -2.82240000       0.16960000
C       -0.04730000      -3.84130000      -0.85150000
C        0.16210000      -4.66860000      -1.69830000
H        0.86610000       2.11970000      -0.26720000
H       -0.41840000       1.75850000      -1.42180000
H       -0.80620000       1.99660000       0.28220000
H       -0.91790000      -0.38570000      -0.32530000
H        1.49260000      -0.92100000      -1.80590000
H        3.04820000      -0.71370000       0.62240000
H        2.40370000       0.92100000       0.25080000
H        0.60130000      -0.37140000       2.12460000
H        1.80960000      -2.46690000       0.57630000
H       -0.43360000      -3.31220000       1.13890000
H       -1.19650000      -2.28600000      -0.05470000
H        0.33500000      -5.40430000      -2.44380000
