19
Properties=species:S:1:pos:R:3 gdb_124475=T pbc="F F F"
C       -0.20820000       1.51430000      -0.09490000
C        0.02420000       0.00090000       0.00030000
C        0.85480000      -0.34780000       1.24200000
O       -1.22100000      -0.68450000       0.18290000
C        0.70340000      -0.52920000      -1.24750000
N        1.62130000       0.17960000      -1.90360000
N        2.00680000      -0.62090000      -2.91630000
C        1.35920000      -1.81050000      -2.92980000
C        0.49890000      -1.79270000      -1.85390000
H        0.73640000       2.04670000      -0.22650000
H       -0.84260000       1.75410000      -0.95530000
H       -0.70260000       1.86940000       0.81380000
H        0.34510000       0.00560000       2.14320000
H        0.98290000      -1.43070000       1.31750000
H        1.84150000       0.11810000       1.18170000
H       -1.78170000      -0.46850000      -0.57040000
H        2.69830000      -0.28580000      -3.56520000
H        1.55610000      -2.55510000      -3.68490000
H       -0.17910000      -2.56700000      -1.53770000
