15
Properties=species:S:1:pos:R:3 gdb_124303=T pbc="F F F"
C        0.02940000       1.51290000       0.03240000
C       -0.38310000       0.05860000      -0.07790000
O       -1.33610000      -0.38600000       0.51950000
C        0.47590000      -0.79850000      -1.00380000
C        0.24100000      -2.26980000      -0.92300000
C       -0.77460000      -3.02390000      -0.42300000
O       -0.49020000      -4.31040000      -0.61370000
N        0.77460000      -4.35200000      -1.26900000
N        1.16180000      -3.16650000      -1.42950000
H        0.97670000       1.58460000       0.57990000
H        0.19960000       1.95140000      -0.95650000
H       -0.73690000       2.07540000       0.56630000
H        0.29360000      -0.43430000      -2.02650000
H        1.53530000      -0.58350000      -0.82050000
H       -1.69480000      -2.77510000       0.07330000
