21
Properties=species:S:1:pos:R:3 gdb_42026=T pbc="F F F"
C       -0.03100000       1.51930000      -0.06570000
C        1.45580000       2.01200000      -0.01920000
C        2.21110000       0.81280000       0.55830000
C        3.70430000       0.61220000       0.34150000
O        4.05240000      -0.68240000       0.83990000
C        3.30480000      -1.71320000       0.24750000
O        1.91340000      -1.59830000       0.45060000
C        1.47390000      -0.36520000      -0.08610000
C        0.00440000      -0.02830000       0.13360000
H       -0.62630000       1.99490000       0.71760000
H       -0.49810000       1.78620000      -1.01710000
H        1.81430000       2.23830000      -1.03060000
H        1.57530000       2.92260000       0.57310000
H        2.02630000       0.74870000       1.63890000
H        3.95440000       0.68840000      -0.73100000
H        4.32550000       1.32640000       0.88880000
H        3.51180000      -1.74560000      -0.84000000
H        3.62190000      -2.64370000       0.72170000
H        1.69180000      -0.35440000      -1.17190000
H       -0.27180000      -0.30290000       1.15680000
H       -0.66660000      -0.56140000      -0.54390000
