14
Properties=species:S:1:pos:R:3 gdb_13302=T pbc="F F F"
N       -0.05160000      -1.15440000       0.09520000
C       -0.00890000      -0.00070000       0.12900000
C        0.04660000       1.45910000       0.15340000
C        1.45260000       2.01500000      -0.11700000
C        1.53090000       3.56410000      -0.02530000
N        2.36270000       3.83300000       1.15890000
C        2.74350000       2.70010000       1.57500000
O        2.34740000       1.57210000       0.93090000
H       -0.64240000       1.85100000      -0.60390000
H       -0.30360000       1.81800000       1.12770000
H        1.83470000       1.61930000      -1.06080000
H        1.99310000       4.00970000      -0.91170000
H        0.54400000       4.02490000       0.09430000
H        3.38550000       2.52230000       2.43010000
