17
Properties=species:S:1:pos:R:3 gdb_9642=T pbc="F F F"
C        0.05670000       1.45580000      -0.26970000
C       -0.02360000       0.02370000       0.27160000
C       -1.42600000      -0.54250000       0.17960000
C       -1.93540000      -1.17300000      -1.09170000
C       -1.64420000      -2.04100000       0.12430000
O       -0.49580000      -2.83490000       0.13240000
C       -2.76690000      -2.60090000       0.84770000
N       -3.66250000      -3.06650000       1.41310000
H        1.07550000       1.84610000      -0.18840000
H       -0.23760000       1.49790000      -1.32350000
H       -0.60390000       2.12960000       0.28640000
H        0.66570000      -0.62750000      -0.27320000
H        0.30040000       0.00480000       1.31910000
H       -2.17100000      -0.00650000       0.76140000
H       -2.96710000      -1.02500000      -1.38840000
H       -1.22800000      -1.29080000      -1.90630000
H       -0.66820000      -3.62280000      -0.39580000
