17
Properties=species:S:1:pos:R:3 gdb_38217=T pbc="F F F"
C        0.05250000       1.64980000       0.05060000
N        1.53420000       1.35700000       0.05000000
C        1.16710000       0.09700000       0.85500000
C       -0.08160000       0.11630000      -0.04170000
O       -1.36280000      -0.50980000      -0.08050000
C       -1.62250000      -0.48550000      -1.43770000
N       -0.67920000      -0.25680000      -2.26290000
C        0.51810000      -0.21530000      -1.40150000
C        1.65700000       0.83810000      -1.36740000
H       -0.26190000       2.05610000       1.01380000
H       -0.30310000       2.27310000      -0.77230000
H        1.86400000      -0.73990000       0.76590000
H        1.01660000       0.37640000       1.89830000
H       -2.66100000      -0.66430000      -1.69380000
H        0.95060000      -1.22490000      -1.42480000
H        1.53120000       1.67030000      -2.06220000
H        2.64280000       0.39570000      -1.52150000
