15
Properties=species:S:1:pos:R:3 gdb_127493=T pbc="F F F"
C       -0.03170000       1.40880000      -0.04590000
N        0.01190000      -0.04650000      -0.02170000
N       -0.01220000      -0.67090000      -1.22670000
C        0.04100000      -1.97520000      -1.20370000
N        0.10830000      -2.66080000      -2.39770000
N        0.07780000      -2.76390000      -0.07300000
C        0.08880000      -2.14080000       1.05800000
C        0.07360000      -0.68180000       1.20340000
O        0.10090000      -0.07390000       2.26530000
H        0.88900000       1.81930000       0.37860000
H       -0.14600000       1.71790000      -1.08290000
H       -0.86740000       1.76360000       0.56250000
H       -0.19150000      -2.14130000      -3.20820000
H       -0.22820000      -3.60980000      -2.34890000
H        0.10850000      -2.71750000       1.98070000
