19
Properties=species:S:1:pos:R:3 gdb_67211=T pbc="F F F"
C        0.05340000       1.54210000      -0.03170000
C        0.02490000       0.01780000      -0.00480000
C       -1.38450000      -0.53010000       0.22340000
C        0.76180000      -0.73710000      -1.12250000
C        2.24940000      -0.79960000      -0.64810000
O        2.33810000      -0.10070000       0.59050000
C        1.05670000      -0.68240000       0.94260000
C        1.25330000      -1.80670000      -0.18130000
O        1.09990000      -3.16270000      -0.25360000
H        1.07810000       1.90940000      -0.11260000
H       -0.52230000       1.92430000      -0.88260000
H       -0.39120000       1.95910000       0.87970000
H       -2.05770000      -0.23080000      -0.58720000
H       -1.38940000      -1.62360000       0.27460000
H       -1.80300000      -0.14160000       1.15940000
H        0.49790000      -0.83800000      -2.16860000
H        3.10560000      -0.83160000      -1.30860000
H        0.89810000      -0.77820000       2.01620000
H        1.81700000      -3.57980000       0.23880000
