18
Properties=species:S:1:pos:R:3 gdb_54308=T pbc="F F F"
C       -0.25530000       1.77220000      -0.04590000
C       -0.08210000       0.37360000      -0.62150000
O        0.84660000       0.11500000      -1.35670000
C       -1.11060000      -0.68120000      -0.31650000
C       -1.60810000      -0.83480000       1.08880000
N       -2.48750000      -0.28820000       0.06280000
C       -1.01360000      -1.89960000      -1.19270000
C       -0.14500000      -3.02530000      -0.84440000
O       -1.56460000      -3.10820000      -0.67690000
H        0.71270000       2.27440000      -0.06420000
H       -0.94200000       2.34250000      -0.68350000
H       -0.65720000       1.78570000       0.97070000
H       -1.85760000      -1.84210000       1.40540000
H       -1.20770000      -0.18150000       1.85890000
H       -2.55690000       0.72270000       0.15180000
H       -1.22710000      -1.71980000      -2.24560000
H        0.27200000      -3.64750000      -1.63350000
H        0.43140000      -2.99030000       0.07850000
