24
Properties=species:S:1:pos:R:3 gdb_113384=T pbc="F F F"
C        3.67020000       0.32770000      -0.13350000
C        2.17080000       0.01930000      -0.22760000
C        1.87160000      -0.95440000      -1.34680000
N        2.07460000      -2.38520000      -1.07030000
C        0.71860000      -1.90560000      -1.40390000
C       -0.30440000      -2.00470000      -0.28220000
C       -0.88430000      -3.41520000      -0.10440000
C        0.21160000      -2.28350000      -2.79640000
O        0.43240000      -3.65270000      -3.12290000
H        4.23790000      -0.59030000       0.04750000
H        4.04300000       0.77590000      -1.06140000
H        3.88170000       1.02590000       0.68190000
H        1.82750000      -0.39360000       0.72500000
H        1.60800000       0.94670000      -0.39710000
H        2.21080000      -0.59640000      -2.32080000
H        2.46190000      -2.87400000      -1.87470000
H        0.16420000      -1.70060000       0.65670000
H       -1.11800000      -1.29300000      -0.47560000
H       -1.54620000      -3.46080000       0.76560000
H       -1.48270000      -3.72730000      -0.96940000
H       -0.08130000      -4.14410000       0.04770000
H       -0.85300000      -2.02000000      -2.88990000
H        0.75390000      -1.72450000      -3.56480000
H       -0.02650000      -4.19170000      -2.47120000
