20
Properties=species:S:1:pos:R:3 gdb_14165=T pbc="F F F"
C       -0.16040000       1.60070000      -0.00550000
C       -0.00890000       0.08260000       0.00790000
C       -1.35040000      -0.58650000      -0.30180000
C        1.18100000      -0.60750000      -0.73390000
C        2.44830000       0.12100000      -0.24260000
C        2.10620000       0.10030000       1.28390000
C        0.75470000      -0.63320000       1.16850000
O        1.09300000      -1.70320000       0.23070000
H        0.76580000       2.13620000       0.20920000
H       -0.51950000       1.93840000      -0.98440000
H       -0.90460000       1.91510000       0.73530000
H       -1.72030000      -0.27310000      -1.28490000
H       -1.25960000      -1.67340000      -0.29610000
H       -2.10620000      -0.29640000       0.43720000
H        1.12210000      -0.92600000      -1.77610000
H        3.34270000      -0.45890000      -0.47860000
H        2.56830000       1.12470000      -0.65800000
H        2.81780000      -0.49060000       1.86390000
H        2.03160000       1.09230000       1.73640000
H        0.25860000      -0.97820000       2.07730000
