18
Properties=species:S:1:pos:R:3 gdb_105924=T pbc="F F F"
C        0.37690000       1.37360000       0.33730000
C       -0.22640000       0.09350000      -0.25500000
C        0.50700000      -0.39540000      -1.46580000
C        0.65330000      -1.80710000      -1.91740000
C        0.97130000      -1.56280000      -3.41260000
O        0.13460000      -0.47230000      -3.86280000
C        0.78480000       0.30440000      -2.83050000
C        2.04520000      -0.59610000      -2.84570000
N        1.85680000      -1.06470000      -1.39770000
H        1.42430000       1.21320000       0.60880000
H        0.33640000       2.20250000      -0.37740000
H       -0.16700000       1.68330000       1.23430000
H       -0.21700000      -0.70170000       0.50000000
H       -1.27850000       0.25740000      -0.52290000
H        0.24080000      -2.67030000      -1.41030000
H        1.08670000      -2.37610000      -4.12530000
H        0.71070000       1.38250000      -2.95560000
H        3.03010000      -0.37130000      -3.24800000
