13
Properties=species:S:1:pos:R:3 gdb_3416=T pbc="F F F"
N       -0.09610000       1.23340000       0.30660000
C       -0.03160000       0.02460000      -0.03530000
O        1.13000000      -0.65470000      -0.32700000
C        0.83130000      -1.95220000      -0.85110000
C       -0.65250000      -2.13080000      -0.58720000
C       -1.12230000      -1.94570000       0.80200000
N       -1.17380000      -0.81740000      -0.16610000
H        0.83750000       1.64300000       0.32220000
H        1.04710000      -1.97110000      -1.92570000
H        1.46860000      -2.68670000      -0.34920000
H       -1.24690000      -2.68100000      -1.30860000
H       -2.09780000      -2.31330000       1.10100000
H       -0.38130000      -1.89090000       1.59520000
