10
Properties=species:S:1:pos:R:3 gdb_713=T pbc="F F F"
O        0.01060000       1.37870000      -0.22990000
C        1.27530000       0.78660000       0.05220000
C        0.05350000      -0.01510000       0.06250000
C        0.54170000      -0.77570000      -1.24130000
O        0.77020000       0.19500000      -2.25880000
C        1.76350000       0.02610000      -1.25150000
H        1.87990000       1.19720000       0.85150000
H       -0.55430000      -0.40000000       0.87190000
H        0.34490000      -1.80090000      -1.52930000
H        2.77900000      -0.20360000      -1.54970000
