11
Properties=species:S:1:pos:R:3 gdb_2748=T pbc="F F F"
O       -0.56990000       0.68540000      -0.52820000
C        0.24590000       0.92470000       0.32280000
C        1.38400000       1.90550000       0.14560000
C        1.39900000       2.75600000      -1.12680000
O        1.18000000       3.97170000      -0.32750000
C        1.16470000       3.27410000       0.84320000
O        1.02260000       3.67540000       1.94980000
H        0.20780000       0.44500000       1.32270000
H        2.32950000       1.44520000       0.44570000
H        2.34700000       2.81660000      -1.66170000
H        0.56330000       2.57910000      -1.80330000
