23
Properties=species:S:1:pos:R:3 gdb_13454=T pbc="F F F"
C        4.13970000      -5.59640000      -0.13850000
C        2.64250000      -5.34690000      -0.33740000
C        2.03590000      -4.44160000       0.74460000
C        0.57410000      -4.13800000       0.47800000
C       -0.55800000      -4.95420000       1.02650000
C       -0.36410000      -6.16520000       1.91520000
N       -0.34130000      -3.57530000       1.47510000
C        0.11470000      -3.29760000       2.82840000
H        4.54510000      -6.24170000      -0.92400000
H        4.70290000      -4.65660000      -0.15560000
H        4.33700000      -6.08060000       0.82460000
H        2.47380000      -4.89300000      -1.32270000
H        2.10560000      -6.30380000      -0.34960000
H        2.17910000      -4.90700000       1.72450000
H        2.59390000      -3.49500000       0.77500000
H        0.42290000      -3.70000000      -0.51080000
H       -1.44410000      -5.04410000       0.39650000
H        0.56920000      -6.14930000       2.48070000
H       -1.18690000      -6.25330000       2.63390000
H       -0.36490000      -7.07530000       1.30570000
H        0.82240000      -4.01930000       3.26010000
H        0.59360000      -2.31290000       2.84180000
H       -0.75760000      -3.25030000       3.48880000
