25
Properties=species:S:1:pos:R:3 gdb_73797=T pbc="F F F"
C        0.08800000       1.53250000       0.00840000
C        0.00020000       0.03860000      -0.05300000
C       -1.09070000      -0.73930000      -0.01430000
C       -2.52070000      -0.30010000       0.09380000
C       -0.73030000      -2.22920000      -0.02670000
C       -0.86320000      -2.81640000       1.39600000
C       -1.59330000      -3.05110000      -0.99800000
C        0.75780000      -2.19750000      -0.47450000
C        1.26850000      -0.78690000      -0.12090000
H        0.68660000       1.85430000       0.87110000
H        0.59180000       1.93340000      -0.88100000
H       -0.88980000       2.01390000       0.08380000
H       -2.61580000       0.78470000       0.17950000
H       -3.10470000      -0.61540000      -0.77970000
H       -3.01100000      -0.74400000       0.96980000
H       -1.88810000      -2.72960000       1.77220000
H       -0.59890000      -3.88010000       1.40280000
H       -0.20460000      -2.29830000       2.10050000
H       -1.56720000      -2.62600000      -2.00720000
H       -1.22740000      -4.08240000      -1.05920000
H       -2.63950000      -3.09420000      -0.67610000
H        1.34680000      -2.99860000      -0.01710000
H        0.80810000      -2.33870000      -1.55960000
H        1.98250000      -0.40070000      -0.85920000
H        1.79440000      -0.76410000       0.84550000
