19
Properties=species:S:1:pos:R:3 gdb_59837=T pbc="F F F"
C       -0.14170000       1.60910000      -0.07240000
C       -0.01070000       0.08600000      -0.09300000
O        1.04370000      -0.36100000       0.74420000
C       -1.35120000      -0.59760000       0.26620000
C       -1.30060000      -2.05130000       0.19710000
C       -1.26170000      -3.25300000       0.12420000
C       -1.16970000      -4.68440000       0.03930000
C       -2.25350000      -5.56770000       0.51410000
O       -2.05110000      -5.35980000      -0.87690000
H        0.82080000       2.06990000      -0.30790000
H       -0.88220000       1.95760000      -0.79960000
H       -0.45560000       1.95990000       0.91900000
H        0.27970000      -0.24160000      -1.09730000
H        0.84550000      -0.08440000       1.64610000
H       -1.64740000      -0.27890000       1.27700000
H       -2.13350000      -0.22540000      -0.40820000
H       -0.15730000      -5.08730000       0.04380000
H       -2.00430000      -6.56070000       0.88700000
H       -3.15250000      -5.11780000       0.93140000
