14
Properties=species:S:1:pos:R:3 gdb_132211=T pbc="F F F"
O        0.08680000       1.34540000       0.16390000
C        0.01030000      -0.00570000       0.05360000
C       -1.14950000      -0.68300000       0.05060000
C       -1.18660000      -2.14390000       0.01100000
N       -2.32350000      -2.75250000       0.01170000
C        0.13360000      -2.78230000      -0.05140000
C        1.24380000      -2.03430000      -0.04630000
F        2.47370000      -2.53420000      -0.06450000
N        1.24080000      -0.65650000      -0.04040000
H        0.74480000       1.68330000      -0.45630000
H       -2.08470000      -0.14060000       0.06020000
H       -2.18210000      -3.76360000      -0.03380000
H        0.22150000      -3.85970000      -0.10900000
H        2.04680000      -0.20350000       0.36860000
