23
Properties=species:S:1:pos:R:3 gdb_41878=T pbc="F F F"
C       -0.05620000       1.50520000      -0.25710000
C        1.44750000       1.64130000       0.10690000
C        1.41070000       0.21870000       0.73890000
C        1.38890000       0.19270000       2.26960000
C        1.17320000      -1.18670000       2.85550000
C        0.30050000      -2.11970000       2.46810000
C       -0.75130000      -2.05880000       1.38740000
C       -1.09540000      -0.65880000       0.85750000
C        0.02560000      -0.01810000       0.04950000
H       -0.70790000       2.03050000       0.44830000
H       -0.35160000       1.79410000      -1.26880000
H        2.09170000       1.69160000      -0.77490000
H        1.72100000       2.46290000       0.77550000
H        2.20100000      -0.45560000       0.39560000
H        2.34510000       0.58540000       2.63630000
H        0.62940000       0.89310000       2.64580000
H        1.82810000      -1.44250000       3.68640000
H        0.32520000      -3.06840000       3.00350000
H       -0.44840000      -2.70650000       0.54940000
H       -1.66410000      -2.52490000       1.78330000
H       -1.99500000      -0.72380000       0.23190000
H       -1.36350000      -0.01430000       1.70390000
H        0.16950000      -0.58760000      -0.87640000
