18
Properties=species:S:1:pos:R:3 gdb_68744=T pbc="F F F"
C       -0.01410000       1.55060000      -0.06860000
C       -0.04510000       0.05250000       0.09220000
N        1.21070000      -0.68810000      -0.18060000
C        0.61220000      -0.72790000       1.18020000
C        1.43480000      -0.20260000       2.32480000
C       -0.30470000      -1.92270000       1.44090000
O       -0.14710000      -2.75580000       2.30190000
C       -1.42740000      -1.83040000       0.46070000
C       -1.29460000      -0.71160000      -0.26300000
H        0.95750000       1.94900000       0.22920000
H       -0.18390000       1.82870000      -1.11500000
H       -0.79060000       2.02830000       0.53780000
H        1.00980000      -1.54530000      -0.69320000
H        2.11870000       0.57720000       1.98460000
H        0.79500000       0.20300000       3.11500000
H        2.02200000      -1.01680000       2.76000000
H       -2.19400000      -2.58910000       0.37410000
H       -1.96540000      -0.37640000      -1.04750000
