13
Properties=species:S:1:pos:R:3 gdb_47951=T pbc="F F F"
O       -0.09760000      -0.04380000       0.17370000
C       -0.01570000       1.16030000       0.08170000
C        1.22450000       1.88750000       0.04820000
C        2.25690000       2.52790000       0.01680000
C        3.40830000       3.23690000      -0.01800000
C        4.43820000       3.87550000      -0.05780000
C        5.67330000       4.60090000      -0.07930000
C        6.03830000       5.46110000      -1.22780000
O        5.60110000       6.03350000      -0.00610000
H       -0.91660000       1.80260000       0.01470000
H        6.48160000       4.16480000       0.50620000
H        7.09340000       5.58980000      -1.46440000
H        5.34680000       5.54560000      -2.06340000
