19
Properties=species:S:1:pos:R:3 gdb_64008=T pbc="F F F"
C       -0.03780000       1.55870000      -0.08690000
C       -0.05330000       0.03140000      -0.01330000
O       -1.37680000      -0.46470000      -0.15270000
C        0.96370000      -0.59450000      -1.06310000
N        2.29240000      -0.63940000      -0.39340000
C        1.98000000      -0.68390000       0.83720000
N        2.53280000      -0.41530000       2.08620000
C        1.21010000       0.16420000       2.51940000
C        0.55890000      -0.54850000       1.28100000
H        0.97760000       1.95320000       0.01510000
H       -0.41880000       1.89170000      -1.06000000
H       -0.66970000       1.99160000       0.69390000
H       -1.74770000      -0.10080000      -0.96360000
H        0.61570000      -1.59560000      -1.35000000
H        1.03460000       0.01020000      -1.97400000
H        3.39680000       0.10920000       2.16340000
H        0.88700000      -0.17850000       3.50430000
H        1.18590000       1.25700000       2.47240000
H        0.04750000      -1.47400000       1.55150000
