21
Properties=species:S:1:pos:R:3 gdb_40836=T pbc="F F F"
C        0.31110000       1.42430000      -0.03050000
O        1.11160000       0.28180000      -0.34490000
C       -0.25060000       0.06840000       0.04500000
C       -0.50080000      -0.71190000       1.31930000
C       -0.20830000      -2.20880000       1.08600000
C       -0.36820000      -3.00970000       2.38390000
C        0.44320000      -2.35640000       3.50290000
O        0.07710000      -0.99850000       3.68130000
C        0.31230000      -0.21470000       2.52510000
H        0.59600000       1.95720000       0.87410000
H        0.05590000       2.06240000      -0.87580000
H       -0.88850000      -0.24130000      -0.78680000
H       -1.56580000      -0.59970000       1.56850000
H       -0.86310000      -2.60420000       0.30080000
H        0.82110000      -2.30520000       0.71650000
H       -1.42380000      -3.03470000       2.68150000
H       -0.04360000      -4.04720000       2.24360000
H        0.26790000      -2.84730000       4.46470000
H        1.52150000      -2.42990000       3.27630000
H        1.38390000      -0.21590000       2.26690000
H        0.02680000       0.80490000       2.79830000
