23
Properties=species:S:1:pos:R:3 gdb_82816=T pbc="F F F"
C       -0.24900000       1.53560000      -0.02550000
C        0.06520000       0.04590000       0.00330000
C        1.13900000      -0.56480000      -0.93860000
C        2.51750000       0.14210000      -0.89210000
C        2.82580000      -0.53310000       0.46590000
C        2.07100000       0.11350000       1.65220000
C        0.75840000      -0.61160000       1.23770000
C       -0.12780000      -1.14440000       2.34200000
C        1.60350000      -1.49580000       0.24030000
H        0.64470000       2.14950000       0.12240000
H       -0.68960000       1.82360000      -0.98690000
H       -0.96640000       1.80310000       0.75880000
H       -0.86360000      -0.51490000      -0.16720000
H        0.79490000      -0.92010000      -1.91130000
H        3.17020000      -0.25460000      -1.67610000
H        2.54890000       1.23590000      -0.94180000
H        3.84950000      -0.86460000       0.64410000
H        2.43250000      -0.28480000       2.60610000
H        2.06310000       1.20680000       1.71970000
H       -0.60460000      -0.32500000       2.89530000
H       -0.92550000      -1.78200000       1.94370000
H        0.44480000      -1.73740000       3.06440000
H        1.63220000      -2.58360000       0.22540000
