19
Properties=species:S:1:pos:R:3 gdb_32109=T pbc="F F F"
C        0.05220000       1.43800000       0.08040000
N       -0.02280000       0.01200000      -0.15880000
C       -1.22290000      -0.68130000      -0.05430000
C       -2.46320000      -0.02410000      -0.04900000
C       -3.63280000      -0.77720000       0.01130000
C       -3.60850000      -2.16280000       0.07400000
C       -2.37280000      -2.82930000       0.07610000
N       -2.32140000      -4.22220000       0.20370000
C       -1.19650000      -2.08300000       0.00970000
H        1.09950000       1.74660000       0.03870000
H       -0.48370000       1.99070000      -0.69930000
H       -0.36200000       1.74320000       1.05440000
H        0.77840000      -0.50680000       0.16390000
H       -2.51700000       1.05560000      -0.09370000
H       -4.58970000      -0.26390000       0.01190000
H       -4.53050000      -2.73260000       0.12890000
H       -3.14960000      -4.69670000      -0.12660000
H       -1.48760000      -4.64590000      -0.17780000
H       -0.23770000      -2.59650000       0.00670000
