19
Properties=species:S:1:pos:R:3 gdb_40631=T pbc="F F F"
C        0.23880000       1.58770000      -0.00270000
O        1.30270000       0.64370000      -0.09390000
C       -0.04360000       0.14750000      -0.09700000
C       -0.44900000      -0.64750000       1.10860000
C       -1.91120000      -1.09560000       1.37590000
C       -2.33450000      -1.85380000       0.09890000
C       -1.04900000      -2.73110000      -0.04460000
C       -0.30490000      -2.19190000       1.19520000
O       -1.37060000      -2.17610000       2.19700000
H        0.13980000       2.09000000       0.95900000
H        0.09800000       2.22430000      -0.87520000
H       -0.36030000      -0.23220000      -1.06810000
H       -0.03280000      -0.19840000       2.01270000
H       -2.64130000      -0.46710000       1.88600000
H       -3.23190000      -2.44830000       0.27980000
H       -2.52070000      -1.19690000      -0.75520000
H       -1.25410000      -3.79820000       0.05750000
H       -0.50580000      -2.57150000      -0.98000000
H        0.61090000      -2.68300000       1.52240000
