16
Properties=species:S:1:pos:R:3 gdb_4187=T pbc="F F F"
C       -0.05780000       1.56190000       0.02920000
C        0.09350000       0.06220000      -0.09140000
C        0.61280000      -0.66540000      -1.28400000
N        1.35140000      -0.68510000       0.07300000
C        2.45490000       0.13850000      -0.55560000
C        1.75300000       0.05940000      -1.89430000
N        2.04520000       0.26060000      -3.11040000
O        3.29530000       0.89900000      -3.21890000
H        0.63540000       2.11730000      -0.60490000
H       -1.07220000       1.84740000      -0.26660000
H        0.08810000       1.88060000       1.06710000
H       -0.70460000      -0.48530000       0.40840000
H        0.12280000      -1.53810000      -1.70140000
H        2.62060000       1.11900000      -0.10270000
H        3.39250000      -0.42300000      -0.54830000
H        3.40810000       0.96280000      -4.17320000
