17
Properties=species:S:1:pos:R:3 gdb_49802=T pbc="F F F"
O       -0.52760000       0.58050000      -0.49170000
C        0.30680000       0.91480000       0.30520000
C        1.30750000       2.05420000       0.07770000
C        1.08470000       2.80260000      -1.20510000
C        1.11970000       4.13050000      -1.28800000
C        1.32360000       5.02240000      -0.09130000
C        0.84470000       4.34090000       1.20310000
C        1.35500000       2.92170000       1.34630000
O        1.73550000       2.45210000       2.39270000
H        0.43200000       0.40930000       1.28520000
H        2.28260000       1.53840000       0.06610000
H        0.90630000       2.19370000      -2.08540000
H        0.99230000       4.61140000      -2.25400000
H        2.38410000       5.29770000      -0.00100000
H        0.78410000       5.96580000      -0.22580000
H        1.11570000       4.89970000       2.10150000
H       -0.25240000       4.27000000       1.17000000
