14
Properties=species:S:1:pos:R:3 gdb_57173=T pbc="F F F"
N       -0.06610000       1.27730000      -0.09920000
C        0.00490000      -0.07040000      -0.03950000
O        1.04210000      -0.70630000      -0.07310000
C       -1.33750000      -0.84680000       0.06100000
O       -1.08670000      -2.19840000      -0.08590000
C       -2.01290000      -0.54240000       1.41930000
O       -1.95790000      -1.29410000       2.35890000
C       -2.73710000       0.72340000       1.48060000
C       -3.35250000       1.75910000       1.50460000
H        0.79410000       1.80180000      -0.08370000
H       -0.93740000       1.76360000       0.03490000
H       -2.01180000      -0.48350000      -0.72960000
H       -0.11890000      -2.28490000      -0.02310000
H       -3.90790000       2.66490000       1.55640000
