18
Properties=species:S:1:pos:R:3 gdb_79436=T pbc="F F F"
C       -0.14530000       1.63890000       0.08170000
C        0.03100000       0.13180000       0.00240000
C        0.81780000      -0.55690000      -1.12620000
C        2.36900000      -0.26000000      -1.00420000
C        2.50020000      -1.78220000      -0.75760000
N        1.09730000      -1.73350000      -0.19530000
C        1.09000000      -0.61830000       0.86820000
C        2.34860000       0.15570000       0.46760000
O        3.08730000       0.85300000       1.10510000
H        0.80210000       2.17560000      -0.02640000
H       -0.82130000       1.98630000      -0.70640000
H       -0.58010000       1.92930000       1.04360000
H       -0.92790000      -0.38620000       0.10170000
H        0.41180000      -0.76360000      -2.11800000
H        2.97320000       0.31730000      -1.70100000
H        2.48880000      -2.38810000      -1.66720000
H        3.28470000      -2.13920000      -0.08220000
H        0.93700000      -0.89110000       1.91000000
