15
Properties=species:S:1:pos:R:3 gdb_7619=T pbc="F F F"
C        0.31070000       0.26480000       0.96940000
C       -0.37720000       0.70440000      -0.30190000
O       -0.19630000       1.77750000      -0.82750000
C       -1.33150000      -0.28100000      -0.96620000
C       -0.69120000      -1.28140000      -1.96480000
C       -1.19960000      -2.32540000      -0.99320000
N       -1.17330000      -3.57480000      -0.94350000
O       -1.74260000      -1.39800000      -0.11730000
H        0.99800000       1.04370000       1.29990000
H       -0.43520000       0.06040000       1.74460000
H        0.85300000      -0.67440000       0.81250000
H       -2.19870000       0.25990000      -1.35080000
H       -1.14140000      -1.31050000      -2.95720000
H        0.39490000      -1.23110000      -2.06010000
H       -1.64120000      -3.92960000      -0.10800000
