19
Properties=species:S:1:pos:R:3 gdb_76649=T pbc="F F F"
C       -0.11220000       1.50610000      -0.11980000
C        0.08220000       0.00050000      -0.08090000
O        1.09360000      -0.52090000      -0.49090000
C       -1.07620000      -0.79710000       0.51080000
C       -0.90200000      -2.29130000       0.36750000
C       -1.66930000      -3.25320000       1.23820000
O       -2.58550000      -2.66370000       2.13310000
C       -2.02660000      -3.13090000      -0.22290000
O       -3.24260000      -2.51840000      -0.52730000
H        0.81180000       1.99260000      -0.43400000
H       -0.91210000       1.75600000      -0.82660000
H       -0.42350000       1.88660000       0.85890000
H       -1.17410000      -0.49620000       1.56300000
H       -2.00610000      -0.46690000       0.03000000
H        0.10970000      -2.58900000       0.11330000
H       -1.16370000      -4.13740000       1.62020000
H       -3.16680000      -3.35890000       2.46050000
H       -1.78500000      -3.92900000      -0.91770000
H       -3.64250000      -2.28620000       0.32320000
