13
Properties=species:S:1:pos:R:3 gdb_5509=T pbc="F F F"
C        0.01230000       1.45050000       0.03240000
N        0.01890000      -0.00340000       0.00100000
C        0.07750000      -0.79560000      -1.11180000
C        0.05910000      -2.09590000      -0.65880000
N       -0.00920000      -2.12900000       0.70170000
C       -0.03230000      -0.85990000       1.07500000
C       -0.10090000      -0.38500000       2.41020000
N       -0.15630000       0.04690000       3.48350000
H        0.92580000       1.84540000      -0.42000000
H       -0.85440000       1.83920000      -0.50870000
H       -0.04060000       1.78140000       1.07010000
H        0.12580000      -0.37180000      -2.10170000
H        0.09160000      -3.00260000      -1.24320000
