17
Properties=species:S:1:pos:R:3 gdb_77582=T pbc="F F F"
C       -0.11030000       1.54590000       0.07510000
C        0.16940000       0.08390000      -0.02910000
O       -0.72820000      -0.84370000       0.60510000
C        0.67490000      -0.90970000       0.94780000
C        1.32470000      -1.71330000      -0.15120000
C        2.56500000      -2.48470000      -0.16900000
O        1.28040000      -3.11970000      -0.25760000
C        0.76060000      -0.71840000      -1.21720000
O       -0.14010000      -1.20780000      -2.16290000
H        0.78150000       2.12920000      -0.17540000
H       -0.90580000       1.83220000      -0.62110000
H       -0.43000000       1.80600000       1.08750000
H        0.93460000      -0.80260000       1.99430000
H        3.16470000      -2.51200000      -1.07790000
H        3.11060000      -2.66670000       0.75630000
H        1.54930000      -0.18560000      -1.75640000
H       -0.83110000      -1.66450000      -1.66560000
