16
Properties=species:S:1:pos:R:3 gdb_33678=T pbc="F F F"
N       -0.06210000      -1.10620000      -0.19870000
C       -0.04120000       0.04320000      -0.06600000
C        0.01950000       1.45460000       0.10290000
C       -0.92640000       2.34080000       0.82360000
C       -0.14830000       3.28120000       1.73170000
N        1.26430000       2.96930000       1.42000000
C        1.25220000       2.39560000       0.08110000
C        0.44380000       3.23110000      -0.95290000
N       -0.81970000       2.46690000      -0.65600000
H       -1.89210000       1.96220000       1.13630000
H       -0.42510000       4.32720000       1.53460000
H       -0.36990000       3.07560000       2.78460000
H        1.85390000       3.79430000       1.46790000
H        2.22270000       2.00060000      -0.21520000
H        0.37780000       4.31140000      -0.78730000
H        0.72010000       3.03530000      -1.99120000
