25
Properties=species:S:1:pos:R:3 gdb_60044=T pbc="F F F"
C        2.31290000       0.96410000      -0.26560000
C        0.96630000       0.56320000       0.35250000
C        0.28760000      -0.53220000      -0.48210000
C        1.16790000       0.13610000       1.82220000
C       -0.10300000      -0.13710000       2.61140000
C       -1.07940000       1.01930000       2.71610000
O       -0.73720000      -1.41250000       2.37890000
C       -0.15190000      -1.17460000       3.66460000
C        0.98160000      -2.07100000       4.09530000
H        3.00810000       0.11590000      -0.27470000
H        2.18720000       1.29870000      -1.30060000
H        2.78750000       1.77680000       0.29500000
H        0.32220000       1.45270000       0.33790000
H        0.90440000      -1.43850000      -0.50470000
H       -0.68590000      -0.81330000      -0.07450000
H        0.14680000      -0.19960000      -1.51610000
H        1.80380000      -0.75450000       1.83640000
H        1.72350000       0.92640000       2.34600000
H       -1.46210000       1.30350000       1.73110000
H       -1.93360000       0.74550000       3.33990000
H       -0.59590000       1.89980000       3.15380000
H       -0.89510000      -1.01110000       4.45000000
H        1.70530000      -2.23870000       3.29610000
H        1.50340000      -1.63920000       4.95660000
H        0.58780000      -3.04650000       4.40020000
