20
Properties=species:S:1:pos:R:3 gdb_71901=T pbc="F F F"
C        0.12500000       1.56480000       0.14910000
C       -0.04790000       0.08140000      -0.02020000
C        0.25780000      -0.63900000      -1.34910000
N       -0.83400000      -1.65190000      -1.11490000
C       -0.36850000      -2.65070000      -0.08450000
C       -0.56730000      -1.63710000       1.05220000
O        0.51060000      -0.67510000       1.09090000
C       -1.35550000      -0.76920000       0.03700000
C       -2.78180000      -0.32020000       0.06750000
H        1.19090000       1.81940000       0.16190000
H       -0.34520000       2.11010000      -0.67510000
H       -0.31300000       1.90380000       1.09260000
H        0.00740000      -0.03350000      -2.22730000
H        1.26400000      -1.05200000      -1.46660000
H       -1.08140000      -3.48130000      -0.03910000
H        0.64150000      -3.04360000      -0.23210000
H       -0.87810000      -1.95380000       2.05130000
H       -2.97780000       0.30230000       0.94730000
H       -3.02640000       0.26190000      -0.82740000
H       -3.45970000      -1.17990000       0.09910000
