17
Properties=species:S:1:pos:R:3 gdb_72860=T pbc="F F F"
C       -0.47820000       1.57860000      -0.01470000
C       -0.07570000       0.13280000       0.05620000
C       -1.12320000      -0.98780000       0.22300000
O       -0.29890000      -1.65100000       1.22020000
C        0.69070000      -0.61880000       1.16900000
C        1.76930000      -0.87720000       0.08420000
O        0.93230000      -0.22850000      -0.92060000
C        3.04150000      -0.20280000       0.27080000
C        4.08430000       0.36410000       0.46170000
H        0.39750000       2.22670000       0.07550000
H       -0.95620000       1.78760000      -0.97830000
H       -1.18780000       1.82610000       0.78050000
H       -2.08320000      -0.67600000       0.65280000
H       -1.28850000      -1.60170000      -0.66800000
H        1.00090000      -0.25080000       2.14770000
H        1.90930000      -1.94160000      -0.13540000
H        5.01230000       0.85700000       0.61700000
