19
Properties=species:S:1:pos:R:3 gdb_40205=T pbc="F F F"
C       -0.07060000       1.46510000       0.11590000
O        1.14590000       0.71200000       0.06690000
C       -0.09910000       0.00670000       0.00430000
C       -0.42380000      -0.93420000       1.15630000
O       -0.19660000      -2.24340000       0.64800000
C       -0.49780000      -2.24440000      -0.73840000
C       -2.00810000      -2.28140000      -1.11970000
C       -1.89470000      -0.84060000      -1.69750000
C       -0.39960000      -0.77480000      -1.25900000
H       -0.28710000       1.94220000       1.07180000
H       -0.28010000       2.07840000      -0.76000000
H        0.23040000      -0.77190000       2.01600000
H       -1.47090000      -0.80950000       1.47750000
H        0.12770000      -3.00550000      -1.20830000
H       -2.27560000      -3.05250000      -1.84570000
H       -2.66390000      -2.38580000      -0.25210000
H       -2.02630000      -0.78400000      -2.77990000
H       -2.54570000      -0.09180000      -1.23780000
H        0.32820000      -0.54720000      -2.03790000
