11
Properties=species:S:1:pos:R:3 gdb_21823=T pbc="F F F"
O       -0.29220000      -0.01200000       0.00210000
C       -0.09950000       1.17160000       0.00850000
N        1.14400000       1.79430000       0.00190000
C        2.38630000       1.20230000      -0.01280000
C        3.62760000       1.78950000      -0.01910000
N        4.52940000       0.76450000      -0.03420000
N        3.97540000      -0.35380000      -0.03740000
O        2.51130000      -0.10760000      -0.02290000
H       -0.90160000       1.93380000       0.02060000
H        1.14410000       2.80350000       0.00890000
H        3.91860000       2.82540000      -0.01430000
