19
Properties=species:S:1:pos:R:3 gdb_52764=T pbc="F F F"
C       -0.14530000       1.43230000       0.00570000
C       -0.07970000      -0.02270000       0.00330000
C        0.01790000      -1.22580000       0.02500000
C        0.07950000      -2.65900000       0.01360000
C        1.17670000      -3.29370000      -0.82520000
C       -0.39250000      -3.42490000       1.26880000
O       -0.81620000      -2.75620000       2.40080000
C       -1.28090000      -3.37090000       0.05880000
O       -2.43160000      -2.59460000       0.22580000
H        0.85040000       1.86860000       0.14180000
H       -0.55240000       1.82180000      -0.93410000
H       -0.77890000       1.79870000       0.82080000
H        2.16460000      -2.98600000      -0.46900000
H        1.12310000      -4.38560000      -0.76860000
H        1.08660000      -3.00560000      -1.87750000
H        0.15130000      -4.33850000       1.49340000
H       -1.69320000      -2.40510000       2.18270000
H       -1.42450000      -4.24130000      -0.57710000
H       -2.25160000      -1.71890000      -0.14640000
