18
Properties=species:S:1:pos:R:3 gdb_56363=T pbc="F F F"
C        0.11980000       1.48460000       0.00500000
C       -0.01200000      -0.06330000       0.02770000
C        0.60510000      -0.59380000       1.24960000
C        1.12670000      -1.00050000       2.25190000
C       -1.45040000      -0.41390000       0.03400000
N       -2.57710000      -0.66810000       0.00650000
C        0.61580000      -0.65630000      -1.24850000
C        2.09020000      -0.94730000      -1.33420000
C        1.09140000      -2.07930000      -1.32310000
H        1.17860000       1.75110000      -0.00950000
H       -0.36250000       1.88530000      -0.89010000
H       -0.34820000       1.92660000       0.88670000
H        1.57500000      -1.36570000       3.14340000
H        0.14470000      -0.25450000      -2.14040000
H        2.59830000      -0.70480000      -2.26060000
H        2.68700000      -0.80720000      -0.44000000
H        1.03360000      -2.67750000      -0.42080000
H        0.90690000      -2.62550000      -2.24080000
