16
Properties=species:S:1:pos:R:3 gdb_19795=T pbc="F F F"
O        0.09350000       1.41510000      -0.00580000
C        0.01740000       0.00240000       0.03550000
C       -1.40560000      -0.58690000       0.03690000
C       -2.33010000      -0.33000000      -1.12680000
C       -1.52090000      -1.60290000      -1.08150000
C       -0.19690000      -1.57780000      -1.82040000
O        0.13490000      -0.30440000      -2.40610000
C        0.72920000      -0.66190000      -1.14530000
H       -0.21010000       1.68030000      -0.88210000
H        0.52040000      -0.28900000       0.96430000
H       -1.86130000      -0.76800000       1.00350000
H       -3.39270000      -0.41040000      -0.92540000
H       -2.06410000       0.40600000      -1.87500000
H       -2.01200000      -2.55980000      -0.95180000
H        0.12950000      -2.44250000      -2.39080000
H        1.81250000      -0.75510000      -1.15440000
