15
Properties=species:S:1:pos:R:3 gdb_3668=T pbc="F F F"
C        0.00050000       1.51560000       0.09500000
C        0.01120000       0.03070000      -0.06870000
C        0.00540000      -0.77290000      -1.19040000
C        0.02210000      -2.10510000      -0.70630000
C        0.02410000      -3.38050000      -1.48920000
N        0.03720000      -2.12840000       0.62430000
N        0.03030000      -0.82570000       0.98560000
H        0.88740000       1.87410000       0.63040000
H       -0.01430000       1.99900000      -0.88390000
H       -0.88020000       1.85930000       0.65000000
H       -0.00890000      -0.44090000      -2.21680000
H        0.89930000      -3.44760000      -2.14500000
H        0.03840000      -4.23390000      -0.80800000
H       -0.86390000      -3.46200000      -2.12600000
H        0.03900000      -0.59380000       1.96420000
