15
Properties=species:S:1:pos:R:3 gdb_2898=T pbc="F F F"
O       -0.08040000      -0.01280000      -0.00710000
C       -0.00090000       1.19640000       0.01600000
C        1.25960000       1.93960000       0.03960000
C        1.34790000       3.27800000       0.02790000
C        2.77570000       3.75280000       0.01530000
C        3.57900000       2.46660000       0.35110000
C        2.62370000       1.28560000       0.03590000
H       -0.91470000       1.83280000       0.02320000
H        0.49600000       3.95050000      -0.00420000
H        3.02780000       4.15130000      -0.97840000
H        2.95780000       4.56990000       0.72220000
H        4.52260000       2.40580000      -0.19570000
H        3.82380000       2.46360000       1.41770000
H        2.69450000       0.46870000       0.75950000
H        2.82450000       0.84080000      -0.94710000
