20
Properties=species:S:1:pos:R:3 gdb_92872=T pbc="F F F"
C        0.01160000       1.58240000      -0.05810000
C        0.06850000       0.05430000       0.02180000
C        0.60830000      -0.51640000      -1.29610000
C        0.92300000      -1.97800000      -1.19200000
C        1.22200000      -2.52080000      -0.01340000
C        1.29960000      -1.72640000       1.23740000
O        1.74710000      -2.22280000       2.26170000
N        0.87760000      -0.41010000       1.16260000
C        0.76250000       0.31100000       2.42360000
H        1.01830000       2.00640000      -0.13570000
H       -0.55080000       1.87470000      -0.95000000
H       -0.48610000       2.02700000       0.80590000
H       -0.96360000      -0.31700000       0.15150000
H       -0.12910000      -0.33310000      -2.08510000
H        1.51580000       0.03150000      -1.59370000
H        0.93710000      -2.57240000      -2.10180000
H        1.48450000      -3.56490000       0.10860000
H        1.29540000      -0.26470000       3.17810000
H        1.20140000       1.30950000       2.35070000
H       -0.28730000       0.41430000       2.73290000
