16
Properties=species:S:1:pos:R:3 gdb_126808=T pbc="F F F"
C       -0.04080000       1.55180000       0.05990000
C       -0.05710000       0.02990000      -0.07970000
N       -1.41170000      -0.51330000      -0.07320000
N       -2.08750000      -0.61340000       1.07420000
C       -3.29160000      -1.08640000       0.74320000
C       -3.40500000      -1.29380000      -0.63820000
C       -2.16910000      -0.91040000      -1.14200000
C       -1.67980000      -0.89740000      -2.46850000
N       -1.26660000      -0.88140000      -3.55090000
H        0.99240000       1.91000000       0.08190000
H       -0.55180000       2.02850000      -0.78130000
H       -0.53460000       1.85360000       0.98670000
H        0.41310000      -0.28560000      -1.01410000
H        0.47650000      -0.44260000       0.74840000
H       -4.02730000      -1.26480000       1.51290000
H       -4.24160000      -1.66990000      -1.20270000
