15
Properties=species:S:1:pos:R:3 gdb_31313=T pbc="F F F"
O        0.04180000       1.31280000       0.53370000
C        0.00580000       0.06160000      -0.13920000
C       -1.38720000      -0.47690000      -0.05370000
C       -1.74980000      -1.81200000       0.07770000
N       -3.13010000      -1.87500000       0.07920000
C       -3.63970000      -0.61770000      -0.03730000
C       -2.58730000       0.26980000      -0.12450000
C       -0.94830000      -2.96540000       0.19650000
N       -0.28780000      -3.91430000       0.29520000
H        0.90610000       1.70550000       0.37880000
H        0.29110000       0.18210000      -1.19740000
H        0.70990000      -0.66050000       0.30110000
H       -3.66140000      -2.72400000       0.16910000
H       -4.70500000      -0.45100000      -0.04510000
H       -2.65730000       1.34180000      -0.21090000
