16
Properties=species:S:1:pos:R:3 gdb_22467=T pbc="F F F"
O       -0.08140000       1.42110000       0.14380000
N        0.06050000       0.04780000       0.02700000
C       -1.06650000      -0.56780000      -0.01700000
C       -1.05390000      -2.07640000      -0.13710000
C        0.34670000      -2.69680000      -0.22610000
C        0.28270000      -4.20530000      -0.15750000
O        0.78500000      -4.95600000      -0.95250000
C       -2.33820000       0.07260000       0.04080000
C       -3.44220000       0.55030000       0.08590000
H        0.83340000       1.72490000       0.15470000
H       -1.59830000      -2.48890000       0.72350000
H       -1.64770000      -2.35370000      -1.01740000
H        0.86550000      -2.39940000      -1.13970000
H        0.94650000      -2.34690000       0.62450000
H       -0.28150000      -4.59910000       0.72230000
H       -4.40710000       0.99300000       0.12720000
