18
Properties=species:S:1:pos:R:3 gdb_34120=T pbc="F F F"
N        0.05220000      -1.11480000      -0.06610000
C        0.02910000       0.04150000      -0.03320000
C        0.01220000       1.48270000       0.01850000
C       -0.41510000       2.25320000       1.30570000
C        0.40660000       3.38820000       0.68340000
C       -0.02550000       3.58980000      -0.83760000
C        1.41890000       3.19740000      -1.24920000
C        1.36560000       2.34740000       0.02400000
C       -0.77570000       2.26190000      -1.06760000
H       -1.48810000       2.37300000       1.47980000
H        0.07030000       1.85880000       2.20180000
H        0.76020000       4.25650000       1.23540000
H       -0.49670000       4.50680000      -1.18790000
H        1.56770000       2.72030000      -2.22270000
H        2.12920000       4.02030000      -1.12690000
H        2.22540000       1.90590000       0.52460000
H       -0.63840000       1.86810000      -2.07730000
H       -1.84440000       2.29380000      -0.84260000
