19
Properties=species:S:1:pos:R:3 gdb_97148=T pbc="F F F"
C        0.30640000       1.47270000       0.15470000
N        0.42120000       0.02360000       0.12630000
C        0.47770000      -0.57150000      -0.98200000
O        0.39110000       0.03980000      -2.21610000
C        0.78770000      -0.86540000      -3.25880000
C        0.83140000      -2.24980000      -2.63680000
C        0.64550000      -2.04130000      -1.16580000
N       -0.35300000      -2.74890000      -1.97050000
C       -1.67750000      -2.18950000      -2.22070000
H        0.90480000       1.85890000       0.98590000
H        0.61980000       1.96260000      -0.77470000
H       -0.73510000       1.75520000       0.35270000
H        0.06600000      -0.76960000      -4.07690000
H        1.77800000      -0.57870000      -3.63240000
H        1.50760000      -2.98710000      -3.05950000
H        1.13390000      -2.60240000      -0.37810000
H       -1.70530000      -1.10600000      -2.39520000
H       -2.10240000      -2.69530000      -3.09330000
H       -2.31140000      -2.41460000      -1.35870000
