16
Properties=species:S:1:pos:R:3 gdb_115442=T pbc="F F F"
O        0.23040000       1.26010000       0.20600000
C       -0.00350000      -0.10770000      -0.03560000
C       -1.49410000      -0.43020000      -0.06070000
C       -1.81360000      -1.93640000      -0.10920000
O       -2.08390000      -2.26500000       1.25760000
C       -2.67330000      -1.12020000       1.79500000
O       -2.05130000      -0.00580000       1.20660000
C       -4.14410000      -1.09230000       1.52300000
N       -5.28090000      -1.07790000       1.31980000
H       -0.23390000       1.47940000       1.02240000
H        0.43640000      -0.33910000      -1.01210000
H        0.48300000      -0.75050000       0.71660000
H       -1.99040000       0.12900000      -0.85980000
H       -2.68670000      -2.14940000      -0.73710000
H       -0.97180000      -2.55080000      -0.43500000
H       -2.50880000      -1.10910000       2.87630000
