15
Properties=species:S:1:pos:R:3 gdb_20978=T pbc="F F F"
C       -0.08590000       1.40640000      -0.02140000
N        0.22560000      -0.01330000      -0.03760000
C        0.05800000      -0.74070000       1.20700000
C        0.07080000      -0.69870000      -1.20730000
N        0.01740000      -2.03150000      -1.29730000
N       -0.06890000      -2.17880000      -2.62350000
N       -0.08720000      -1.05870000      -3.31160000
N       -0.00260000      -0.09300000      -2.43150000
H        0.47840000       1.88580000       0.78410000
H        0.20090000       1.85330000      -0.97280000
H       -1.15740000       1.59900000       0.14450000
H       -1.00080000      -0.89600000       1.46720000
H        0.53730000      -1.71770000       1.13060000
H        0.53230000      -0.17510000       2.01410000
H       -0.12980000      -3.08300000      -3.06520000
