23
Properties=species:S:1:pos:R:3 gdb_60452=T pbc="F F F"
C        0.13900000       1.12780000       0.54090000
C       -0.20630000      -0.21880000      -0.08930000
O        0.51240000      -1.28510000       0.54370000
C       -1.71180000      -0.49040000      -0.08750000
O       -1.99290000      -1.59580000      -0.91880000
C       -2.90090000      -2.57420000      -0.42940000
C       -2.14460000      -3.84750000      -0.02750000
C       -1.48070000      -4.52710000      -1.22790000
O       -1.20700000      -3.55850000       0.99510000
H        1.22240000       1.27050000       0.55610000
H       -0.31180000       1.95300000      -0.01850000
H       -0.22910000       1.18560000       1.57350000
H        0.13400000      -0.24160000      -1.13030000
H        0.40420000      -1.18640000       1.49750000
H       -2.04340000      -0.67300000       0.94490000
H       -2.24310000       0.40200000      -0.45620000
H       -3.45410000      -2.18830000       0.43640000
H       -3.62530000      -2.79240000      -1.22550000
H       -2.87410000      -4.53600000       0.42000000
H       -0.90230000      -5.39220000      -0.89370000
H       -2.22560000      -4.86510000      -1.95660000
H       -0.80560000      -3.82810000      -1.73160000
H       -0.54880000      -2.95110000       0.61890000
