17
Properties=species:S:1:pos:R:3 gdb_37491=T pbc="F F F"
C       -0.06140000       1.67780000      -0.03120000
C        1.44290000       1.94140000      -0.00320000
C        2.05830000       0.79140000      -0.34520000
C        2.50940000      -0.16280000       0.72550000
O        2.87530000      -1.40980000       0.11230000
C        1.49920000      -1.50030000      -0.28420000
C        0.96000000      -0.70370000       0.92330000
C       -0.01380000       0.11590000      -0.03290000
C        1.09590000      -0.19950000      -1.05920000
H       -0.52890000       2.13230000       0.85040000
H       -0.62770000       2.02750000      -0.90580000
H        1.86750000       2.64410000       0.70790000
H        3.14180000       0.15100000       1.55440000
H        1.17700000      -2.48340000      -0.62200000
H        0.68490000      -1.13290000       1.88660000
H       -0.97580000      -0.39890000      -0.14030000
H        0.97250000      -0.12420000      -2.13840000
