18
Properties=species:S:1:pos:R:3 gdb_14353=T pbc="F F F"
O       -0.51080000       1.33540000      -0.58840000
C       -0.03680000       0.10070000      -0.06930000
C       -1.18440000      -0.87760000       0.29290000
C       -1.52050000      -1.63400000      -1.00740000
C       -2.30820000      -0.83700000      -2.06190000
O       -1.08630000      -0.44450000      -2.74160000
C       -0.30140000      -1.38480000      -1.94300000
C        0.77240000      -0.68440000      -1.12240000
H       -0.73550000       1.17430000      -1.51540000
H        0.55890000       0.35330000       0.81290000
H       -0.83270000      -1.58780000       1.05030000
H       -2.03860000      -0.33940000       0.71280000
H       -1.84680000      -2.66130000      -0.84370000
H       -2.94270000      -1.44740000      -2.71620000
H       -2.87610000       0.03030000      -1.70860000
H        0.05560000      -2.21520000      -2.56050000
H        1.41120000      -0.03150000      -1.72400000
H        1.40790000      -1.43940000      -0.64340000
