18
Properties=species:S:1:pos:R:3 gdb_118614=T pbc="F F F"
C        0.39760000       0.64750000       0.53010000
O       -0.25570000       0.26950000      -0.67180000
C        0.49310000      -0.53400000      -1.53760000
C        0.53330000      -2.03120000      -1.17270000
O        1.41050000      -2.17560000      -0.04160000
C        1.77430000      -3.43590000       0.28680000
N        2.53250000      -3.62570000       1.27590000
C       -0.79320000      -2.58460000      -0.90820000
C       -1.87740000      -3.05790000      -0.70060000
H        0.54890000      -0.20060000       1.20510000
H        1.37550000       1.10650000       0.32220000
H       -0.24620000       1.38760000       1.01120000
H        0.02180000      -0.45360000      -2.52300000
H        1.53570000      -0.18870000      -1.61690000
H        0.97960000      -2.55600000      -2.03170000
H        1.35330000      -4.20190000      -0.37650000
H        2.72210000      -4.62010000       1.38290000
H       -2.84030000      -3.46510000      -0.51200000
