20
Properties=species:S:1:pos:R:3 gdb_113883=T pbc="F F F"
C       -0.11130000       1.15650000       0.41620000
C       -0.38130000      -0.01480000      -0.50400000
O       -1.51440000      -0.40770000      -0.70450000
C        0.85420000      -0.63190000      -1.16200000
N        0.94100000      -2.08310000      -1.32080000
C       -0.16690000      -3.01360000      -1.09990000
C        0.42030000      -2.82930000      -2.45820000
C       -0.34750000      -2.23090000      -3.63030000
O       -1.08000000      -1.05510000      -3.37950000
H        0.39190000       0.80020000       1.32300000
H        0.56730000       1.87300000      -0.05980000
H       -1.04730000       1.64590000       0.68670000
H        0.92710000      -0.13830000      -2.13980000
H        1.73110000      -0.31330000      -0.58410000
H        0.08400000      -3.89190000      -0.50850000
H       -1.15770000      -2.61440000      -0.91520000
H        1.11270000      -3.59810000      -2.80750000
H        0.37230000      -1.97180000      -4.41740000
H       -0.98570000      -3.03130000      -4.04470000
H       -1.54040000      -1.11750000      -2.52990000
