15
Properties=species:S:1:pos:R:3 gdb_30964=T pbc="F F F"
C       -0.12520000       1.46000000       0.15970000
N       -0.14190000       0.14770000      -0.49190000
C       -1.18010000      -0.70430000      -0.20890000
C       -1.24340000      -2.01560000       0.04820000
N       -0.25090000      -2.96710000       0.18870000
O       -2.62440000      -2.36170000       0.11250000
C       -3.33710000      -1.22950000      -0.06150000
O       -4.52130000      -1.11570000      -0.03920000
O       -2.45660000      -0.18780000      -0.27390000
H        0.69560000       2.04520000      -0.25970000
H       -1.06100000       1.97800000      -0.05690000
H       -0.00210000       1.40330000       1.25100000
H        0.73900000      -0.34670000      -0.43020000
H       -0.26940000      -3.43920000       1.08740000
H       -0.25420000      -3.66950000      -0.54500000
