15
Properties=species:S:1:pos:R:3 gdb_8824=T pbc="F F F"
C        0.16390000       1.42390000       0.13840000
N        0.41350000      -0.00110000       0.00180000
C        0.33420000      -0.64360000      -1.18330000
O        0.04460000      -0.12350000      -2.24520000
C        0.56970000      -2.19150000      -1.16080000
N        1.09470000      -2.70500000      -2.42200000
C        1.39720000      -2.61710000      -0.02960000
N        2.03930000      -2.88870000       0.89270000
H        1.06940000       1.95440000       0.45110000
H       -0.15130000       1.79910000      -0.83530000
H       -0.62630000       1.61200000       0.87210000
H        0.72920000      -0.51750000       0.80840000
H       -0.42860000      -2.62750000      -1.00940000
H        0.59760000      -2.19900000      -3.15420000
H        2.06860000      -2.42580000      -2.51400000
