20
Properties=species:S:1:pos:R:3 gdb_104095=T pbc="F F F"
C       -0.04870000       1.42950000      -0.01270000
O        0.10500000       0.01810000      -0.01520000
C        0.69810000      -0.55950000       1.10850000
C        2.09610000      -0.03340000       1.40490000
O       -0.13820000      -0.28690000       2.27480000
C       -0.78830000      -1.44860000       2.53850000
N       -0.48660000      -2.49980000       1.90350000
C        0.59340000      -2.11470000       0.97330000
C        0.33560000      -2.63810000      -0.43620000
H        0.90930000       1.94990000      -0.13880000
H       -0.68860000       1.66740000      -0.86500000
H       -0.53130000       1.77710000       0.90700000
H        2.08390000       1.03390000       1.63710000
H        2.51720000      -0.55970000       2.26430000
H        2.74340000      -0.19830000       0.53840000
H       -1.53940000      -1.37530000       3.31790000
H        1.52320000      -2.56030000       1.34930000
H       -0.59660000      -2.23590000      -0.83520000
H        1.14840000      -2.35900000      -1.11290000
H        0.26480000      -3.72820000      -0.40430000
