19
Properties=species:S:1:pos:R:3 gdb_11526=T pbc="F F F"
C       -0.00210000       1.57300000       0.11880000
C       -0.01400000       0.03980000       0.01370000
C        0.75430000      -0.64870000       1.16120000
N        2.15560000      -0.24540000       1.18970000
C        2.53990000       0.76400000       2.17400000
C        2.91130000      -0.66290000       2.36670000
C       -1.44530000      -0.46190000       0.03010000
O       -1.93610000      -1.19380000      -0.78970000
H        1.02240000       1.94860000       0.08560000
H       -0.55600000       2.02600000      -0.70910000
H       -0.46030000       1.91220000       1.05540000
H        0.43200000      -0.27550000      -0.93420000
H        0.24690000      -0.44990000       2.12480000
H        0.72400000      -1.73250000       1.00000000
H        3.27850000       1.48940000       1.84510000
H        1.76340000       1.16640000       2.82280000
H        2.38200000      -1.21210000       3.14410000
H        3.92560000      -1.00300000       2.17930000
H       -2.04520000      -0.09390000       0.89850000
