19
Properties=species:S:1:pos:R:3 gdb_99341=T pbc="F F F"
C        0.07740000       1.44260000       0.12720000
N       -0.08280000       0.00100000       0.10990000
C       -1.24640000      -0.60530000      -0.26030000
O       -2.24810000       0.00970000      -0.58100000
C       -1.20000000      -2.13480000      -0.27180000
C       -2.54560000      -2.73660000       0.14150000
C       -2.58150000      -4.26140000      -0.07350000
C       -3.84870000      -4.85840000       0.34370000
N       -4.85300000      -5.31970000       0.68100000
H        0.33500000       1.80170000       1.12950000
H        0.85580000       1.76680000      -0.57250000
H       -0.87620000       1.87750000      -0.17350000
H        0.70140000      -0.57520000       0.36570000
H       -0.95850000      -2.44040000      -1.29910000
H       -0.38970000      -2.51030000       0.36500000
H       -2.74810000      -2.51380000       1.19410000
H       -3.33640000      -2.25420000      -0.43730000
H       -2.41800000      -4.49960000      -1.13140000
H       -1.77340000      -4.74950000       0.48480000
