20
Properties=species:S:1:pos:R:3 gdb_96991=T pbc="F F F"
C        0.16570000       1.40820000      -0.13060000
N        0.39880000      -0.02960000      -0.13570000
C        0.57110000      -0.62660000       0.94920000
O        0.59710000      -0.14260000       2.25490000
C        0.90230000      -1.46920000       2.78190000
C       -0.37030000      -2.23350000       3.19160000
C       -0.48670000      -2.80100000       1.74290000
C        0.83710000      -2.06400000       1.33900000
C        1.91780000      -2.82310000       0.60640000
H        0.88980000       1.89030000      -0.79620000
H       -0.82960000       1.61300000      -0.54140000
H        0.23580000       1.86980000       0.86130000
H        1.77980000      -1.44640000       3.42880000
H       -0.18480000      -3.00430000       3.94370000
H       -1.18170000      -1.59020000       3.53730000
H       -0.38310000      -3.88780000       1.69780000
H       -1.37060000      -2.51290000       1.17110000
H        1.60610000      -3.01510000      -0.42560000
H        2.85130000      -2.25300000       0.56910000
H        2.12010000      -3.78680000       1.08520000
