24
Properties=species:S:1:pos:R:3 gdb_60543=T pbc="F F F"
C       -0.50530000       1.51300000       0.13910000
C       -0.11530000       0.03610000       0.03080000
N        0.70900000      -0.13100000      -1.17730000
C        0.57700000      -1.37350000      -1.92960000
C        0.00990000      -0.10430000      -2.45710000
C        0.63620000      -0.53020000       1.24350000
C        0.69320000      -2.04880000       1.29570000
C        1.84590000       0.20090000       1.76880000
C        0.57550000       0.17500000       2.58250000
H        0.36940000       2.15140000       0.29340000
H       -0.98820000       1.83670000      -0.78700000
H       -1.21190000       1.67720000       0.95580000
H       -1.05320000      -0.54550000      -0.07080000
H        1.49740000      -1.78580000      -2.33450000
H       -0.13680000      -2.11640000      -1.57710000
H       -1.07610000      -0.01460000      -2.44910000
H        0.50310000       0.43930000      -3.25810000
H        1.25960000      -2.46400000       0.45680000
H        1.17920000      -2.38620000       2.21660000
H       -0.31240000      -2.48660000       1.27400000
H        2.68870000      -0.39480000       2.10350000
H        2.13000000       1.13370000       1.29530000
H        0.01720000       1.09810000       2.67580000
H        0.54450000      -0.44730000       3.47100000
