20
Properties=species:S:1:pos:R:3 gdb_60853=T pbc="F F F"
C       -0.35870000       1.40840000       0.20890000
N       -0.05120000      -0.01430000       0.23290000
C        1.22730000      -0.45160000      -0.31860000
C        0.96790000      -0.53740000       1.14850000
C        1.73510000       0.34420000       2.11400000
C        0.55790000      -1.90010000       1.72680000
O        1.64870000      -2.59580000       2.26380000
C       -0.51770000      -1.71470000       2.77940000
O       -0.38940000      -2.14690000       3.90090000
H        0.51740000       2.06830000       0.29330000
H       -0.86280000       1.63840000      -0.73500000
H       -1.04790000       1.64730000       1.02540000
H        1.20500000      -1.34140000      -0.94360000
H        1.92610000       0.31720000      -0.64690000
H        2.13930000       1.23500000       1.63020000
H        1.10570000       0.66740000       2.95180000
H        2.56890000      -0.22890000       2.52660000
H        0.08840000      -2.46820000       0.90570000
H        1.39820000      -2.80260000       3.17900000
H       -1.42160000      -1.16310000       2.45840000
