19
Properties=species:S:1:pos:R:3 gdb_87910=T pbc="F F F"
C       -0.13670000       1.53430000      -0.03160000
C       -0.04800000       0.03170000       0.11670000
C        1.23220000      -0.72520000      -0.21380000
C        0.73640000      -0.61040000       1.20840000
C        1.51600000       0.09060000       2.30240000
C        1.89470000      -1.07620000       3.22170000
O        2.68870000      -1.07180000       4.12240000
C        1.06130000      -2.27310000       2.74960000
O        0.14820000      -1.76070000       1.79790000
H        0.80730000       2.02130000       0.23310000
H       -0.37020000       1.81010000      -1.06530000
H       -0.91910000       1.95380000       0.61040000
H       -0.95970000      -0.50700000      -0.12880000
H        1.13570000      -1.68970000      -0.69920000
H        2.10560000      -0.14810000      -0.50390000
H        2.40570000       0.62930000       1.97310000
H        0.88690000       0.78660000       2.87230000
H        1.73920000      -3.02700000       2.31650000
H        0.51230000      -2.73650000       3.57410000
