18
Properties=species:S:1:pos:R:3 gdb_12135=T pbc="F F F"
C       -0.03780000       1.52720000       0.04680000
C        0.05630000       0.03000000       0.00250000
C       -0.81910000      -0.88680000       0.80500000
C        0.67520000      -0.94570000       1.02580000
C        1.31550000      -1.69940000      -0.10910000
C        2.61320000      -2.36820000      -0.15380000
O        1.38810000      -3.11530000      -0.20510000
C        0.67870000      -0.77010000      -1.16080000
H        0.91770000       1.99670000      -0.21400000
H       -0.79150000       1.89750000      -0.65880000
H       -0.32230000       1.87630000       1.04480000
H       -1.37550000      -0.41330000       1.60840000
H       -1.33500000      -1.72250000       0.33830000
H        1.12300000      -0.74350000       1.99190000
H        3.19740000      -2.36020000      -1.07410000
H        3.19440000      -2.49040000       0.76030000
H       -0.02480000      -1.23850000      -1.85640000
H        1.42340000      -0.20560000      -1.72950000
