21
Properties=species:S:1:pos:R:3 gdb_66128=T pbc="F F F"
C        0.00410000       1.57490000       0.03440000
C        0.01350000       0.04630000       0.04540000
C        0.74320000      -0.58020000      -1.18880000
C        1.31990000      -1.93760000      -0.72400000
C        1.54420000      -1.77590000       0.77230000
C        2.26260000      -0.53190000       1.22820000
C        0.75280000      -0.57450000       1.24010000
C       -1.40790000      -0.49770000       0.07420000
O       -2.40970000       0.16960000       0.11730000
H        1.02670000       1.96260000       0.05440000
H       -0.49710000       1.95940000      -0.85870000
H       -0.53330000       1.96880000       0.90100000
H        0.07900000      -0.68060000      -2.05270000
H        1.54520000       0.09760000      -1.49580000
H        0.59830000      -2.74410000      -0.89800000
H        2.23060000      -2.20220000      -1.27230000
H        1.62110000      -2.66770000       1.38430000
H        2.75580000      -0.56760000       2.19330000
H        2.77560000       0.08610000       0.49830000
H        0.25330000      -0.56670000       2.20350000
H       -1.46950000      -1.61120000       0.05460000
