18
Properties=species:S:1:pos:R:3 gdb_7968=T pbc="F F F"
C       -0.12010000       1.56220000       0.04820000
C        0.07710000       0.04690000      -0.03550000
C        0.92460000      -0.45910000      -1.22110000
C        1.98150000      -1.35070000      -0.60190000
C        2.96560000      -2.08010000      -1.45540000
C        1.90150000      -1.36400000       0.73850000
C        0.80240000      -0.50330000       1.21120000
O        0.50270000      -0.24960000       2.35700000
H        0.84260000       2.08470000       0.01940000
H       -0.73090000       1.93280000      -0.78070000
H       -0.61250000       1.81900000       0.98970000
H       -0.90930000      -0.43350000      -0.05190000
H        0.33670000      -1.00770000      -1.96740000
H        1.40160000       0.36800000      -1.76470000
H        3.54050000      -1.37680000      -2.07110000
H        3.66520000      -2.67220000      -0.86110000
H        2.44940000      -2.75000000      -2.15460000
H        2.55040000      -1.90570000       1.41590000
