8
Properties=species:S:1:pos:R:3 gdb_724=T pbc="F F F"
C       -0.00230000       1.28470000       0.00970000
N        1.11850000       2.01410000       0.00270000
N        2.27420000       1.37280000      -0.01240000
N        2.30780000       0.05150000      -0.02010000
C        1.14260000      -0.60450000      -0.01230000
N       -0.06100000      -0.04240000       0.00280000
H       -0.93580000       1.84110000       0.02210000
H        1.20380000      -1.68960000      -0.01890000
