15
Properties=species:S:1:pos:R:3 gdb_57123=T pbc="F F F"
C       -0.44850000       1.92420000       0.86730000
C       -0.21930000       0.50280000       0.30830000
C        0.58930000      -0.30990000       1.20030000
C        1.26160000      -0.98020000       1.95080000
C        2.01770000      -1.73750000       2.79840000
N        2.65750000      -2.38700000       3.51870000
C       -1.58550000      -0.13260000      -0.09040000
N       -1.75690000      -1.43780000       0.22550000
O       -2.40700000       0.53440000      -0.68240000
H        0.50190000       2.45080000       0.97500000
H       -1.09510000       2.46400000       0.17460000
H       -0.93660000       1.88120000       1.84420000
H        0.32280000       0.59440000      -0.64370000
H       -1.07700000      -1.95470000       0.75580000
H       -2.62620000      -1.87800000      -0.02850000
