14
Properties=species:S:1:pos:R:3 gdb_54072=T pbc="F F F"
N       -0.19820000       1.29040000       0.16660000
C       -0.10250000      -0.06230000      -0.02430000
N        1.11570000      -0.50890000      -0.48330000
H        1.21180000      -1.51440000      -0.52370000
H        1.91750000      -0.05350000      -0.06860000
C       -1.15260000      -0.90240000       0.23480000
O       -2.38200000      -0.32590000       0.59530000
C       -3.40610000      -0.45240000      -0.30080000
O       -4.47720000       0.02470000      -0.09900000
C       -1.01530000      -2.30310000       0.25580000
N       -0.86660000      -3.45680000       0.24670000
H        0.30370000       1.87080000      -0.48860000
H       -1.11590000       1.62620000       0.41620000
H       -3.10990000      -1.03250000      -1.19300000
