18
Properties=species:S:1:pos:R:3 gdb_93399=T pbc="F F F"
C        0.03670000       1.51500000       0.05380000
C       -0.04860000       0.01990000      -0.00840000
C       -0.04230000      -0.68150000      -1.15010000
C       -0.01790000      -2.16400000      -1.20210000
O        0.12570000      -2.78450000      -2.24130000
N       -0.10600000      -2.79000000       0.02450000
C       -0.66450000      -2.10600000       1.18150000
C       -0.03610000      -0.71930000       1.31960000
O        1.29210000      -0.76910000       1.83520000
H        0.89430000       1.81260000       0.66830000
H        0.14120000       1.96090000      -0.93780000
H       -0.85540000       1.93820000       0.53280000
H        0.00740000      -0.19990000      -2.12120000
H       -0.21410000      -3.79230000      -0.03900000
H       -1.75790000      -1.99860000       1.10330000
H       -0.44450000      -2.68570000       2.08200000
H       -0.60530000      -0.15570000       2.06640000
H        1.81260000      -1.29190000       1.21300000
