15
Properties=species:S:1:pos:R:3 gdb_53203=T pbc="F F F"
C       -0.01450000       1.50990000      -0.03130000
C        0.02700000       0.05710000       0.03350000
C        0.06650000      -1.14380000       0.08560000
C        0.08700000      -2.59620000       0.14430000
N        0.55180000      -3.12050000       1.45090000
C       -0.37610000      -3.89210000       1.86290000
N       -1.48740000      -4.01990000       1.03780000
C       -1.31890000      -3.22360000      -0.08970000
O       -2.08590000      -3.09260000      -1.00500000
H        0.65420000       1.89230000      -0.81000000
H       -1.02560000       1.86700000      -0.25480000
H        0.29380000       1.95540000       0.92080000
H        0.75270000      -2.99240000      -0.63590000
H       -0.33830000      -4.44190000       2.79800000
H       -2.31560000      -4.56290000       1.22150000
