18
Properties=species:S:1:pos:R:3 gdb_56989=T pbc="F F F"
N        0.08260000       1.40910000       0.14950000
C       -0.09260000      -0.04080000       0.03010000
C       -1.52150000      -0.38290000       0.03650000
N       -2.63930000      -0.67200000      -0.00740000
C        0.58050000      -0.65720000      -1.21380000
N        2.05380000      -0.36070000      -1.27710000
C        2.31030000      -1.80400000      -1.52260000
C        1.93090000      -2.56610000      -0.29860000
C        0.85180000      -2.16450000      -1.28420000
H        1.08290000       1.59050000       0.10290000
H       -0.34170000       1.87580000      -0.64820000
H        0.35820000      -0.49420000       0.92030000
H        0.05480000      -0.31130000      -2.11120000
H        2.26300000       0.18780000      -2.10450000
H        3.02040000      -2.14080000      -2.26740000
H        2.16090000      -3.62650000      -0.31250000
H        2.02390000      -2.09300000       0.67490000
H        0.20870000      -2.88960000      -1.76370000
