16
Properties=species:S:1:pos:R:3 gdb_63293=T pbc="F F F"
C        0.19160000       1.42160000      -0.24300000
C       -0.05410000      -0.05080000       0.02160000
C       -1.51390000      -0.45540000      -0.05060000
O        0.74680000      -0.87450000      -0.92440000
C        1.51770000      -1.40510000       0.05830000
O        2.42640000      -2.16010000      -0.02810000
C        0.75090000      -0.69080000       1.20120000
C        1.50980000       0.16500000       2.08860000
N        2.10750000       0.86440000       2.78810000
H        1.25670000       1.66120000      -0.20310000
H       -0.18810000       1.68610000      -1.23360000
H       -0.32570000       2.03330000       0.50180000
H       -1.92780000      -0.19890000      -1.02980000
H       -1.63220000      -1.53180000       0.10070000
H       -2.09090000       0.07230000       0.71480000
H        0.16140000      -1.40560000       1.78200000
