15
Properties=species:S:1:pos:R:3 gdb_15030=T pbc="F F F"
O       -0.86310000       0.48680000       0.21060000
C        0.28810000       0.68310000       0.48060000
C        1.18600000       1.69670000      -0.25400000
C        1.30570000       2.90250000       0.57100000
C        1.41870000       3.86560000       1.28340000
N        2.43310000       0.99520000      -0.58550000
C        3.60330000       1.78680000      -0.95620000
C        3.56250000       1.06270000       0.34300000
H        0.81290000       0.13840000       1.29450000
H        0.68020000       1.94310000      -1.19370000
H        1.50160000       4.72840000       1.89810000
H        4.17550000       1.39750000      -1.79270000
H        3.51990000       2.87020000      -0.91260000
H        3.45900000       1.67180000       1.23740000
H        4.10270000       0.13010000       0.47350000
