19
Properties=species:S:1:pos:R:3 gdb_8923=T pbc="F F F"
C        0.04300000       1.37470000       0.12560000
O       -0.06540000      -0.01810000      -0.07060000
C        0.65280000      -0.52260000      -1.18470000
C        2.14820000      -0.64750000      -0.89050000
C       -0.01150000      -1.88690000      -1.50340000
C       -1.51400000      -1.75040000      -1.81480000
C        0.68030000      -2.55320000      -2.60970000
N        1.21400000      -3.07050000      -3.49510000
H        1.06210000       1.68480000       0.39530000
H       -0.26400000       1.93430000      -0.77120000
H       -0.62680000       1.63290000       0.94920000
H        0.50110000       0.14200000      -2.05170000
H        2.68120000      -1.05980000      -1.75100000
H        2.58400000       0.32910000      -0.66410000
H        2.31080000      -1.30280000      -0.02890000
H        0.11100000      -2.51460000      -0.61130000
H       -1.66900000      -1.14680000      -2.71400000
H       -1.96570000      -2.73110000      -1.98150000
H       -2.00940000      -1.26400000      -0.97410000
