19
Properties=species:S:1:pos:R:3 gdb_66174=T pbc="F F F"
O       -0.13920000       1.43970000       0.24900000
C        0.03380000       0.05870000       0.05000000
C       -1.35580000      -0.56780000      -0.00350000
C       -2.23320000       0.00790000      -1.12800000
C       -3.65500000      -0.49390000      -1.04370000
O       -4.25300000      -1.03760000      -1.93580000
C        1.00450000      -0.40530000      -1.07070000
O        1.68620000      -1.28300000      -0.15520000
C        1.02390000      -0.69220000       0.97940000
H        0.72500000       1.86460000       0.24480000
H       -1.24500000      -1.65090000      -0.12410000
H       -1.84090000      -0.39790000       0.96610000
H       -2.25520000       1.09990000      -1.01890000
H       -1.83870000      -0.23120000      -2.11980000
H       -4.14030000      -0.32000000      -0.05340000
H        0.58530000      -0.94270000      -1.92830000
H        1.65690000       0.40200000      -1.43770000
H        1.68390000      -0.01420000       1.54140000
H        0.61360000      -1.44420000       1.66280000
