17
Properties=species:S:1:pos:R:3 gdb_24065=T pbc="F F F"
N        0.00880000      -1.18910000       0.14170000
C       -0.01700000      -0.03400000       0.11250000
C       -0.01380000       1.42650000       0.07560000
C        1.41450000       2.01520000      -0.09340000
C        1.42000000       3.50880000      -0.11170000
C        1.40470000       4.40070000      -1.16310000
C        1.36660000       5.71550000      -0.62170000
C        1.35860000       5.59350000       0.74720000
N        1.38470000       4.25410000       1.04650000
H       -0.64980000       1.76560000      -0.74850000
H       -0.47070000       1.80150000       0.99800000
H        2.05140000       1.62930000       0.71130000
H        1.83810000       1.64220000      -1.02960000
H        1.42290000       4.13240000      -2.20890000
H        1.35360000       6.64230000      -1.17390000
H        1.34490000       6.33650000       1.52830000
H        1.42320000       3.87370000       1.97650000
