19
Properties=species:S:1:pos:R:3 gdb_73220=T pbc="F F F"
C       -0.10920000       1.55920000      -0.00250000
C        0.03910000       0.05000000       0.01260000
C       -1.18370000      -0.80960000       0.43650000
O       -0.38660000      -1.57050000       1.36280000
C        0.75900000      -0.70590000       1.16040000
C        1.95220000      -1.45990000       0.56900000
C        1.56770000      -1.70120000      -0.90060000
C        0.67630000      -0.51020000      -1.26750000
O        0.50470000      -0.06190000      -2.37230000
H        0.86720000       2.05340000      -0.04060000
H       -0.66660000       1.87020000      -0.89100000
H       -0.63610000       1.91480000       0.88800000
H       -1.96280000      -0.22520000       0.94420000
H       -1.65160000      -1.43900000      -0.32990000
H        0.99780000      -0.13970000       2.06760000
H        2.84380000      -0.82450000       0.63400000
H        2.15470000      -2.37850000       1.12550000
H        2.40630000      -1.78880000      -1.59330000
H        0.96270000      -2.61120000      -0.99920000
