18
Properties=species:S:1:pos:R:3 gdb_26349=T pbc="F F F"
C        0.91660000       1.53150000      -0.55390000
C        0.05390000       0.54860000       0.24550000
N       -0.59170000      -0.49750000      -0.58710000
H        0.11970000      -0.99540000      -1.11780000
H       -1.07770000      -1.67220000       0.87020000
H       -1.21740000      -0.06920000      -1.26330000
C        0.80380000      -0.14290000       1.34950000
C        1.97840000       0.18180000       1.95660000
O        2.27270000      -0.68950000       2.94720000
C        1.26620000      -1.62110000       2.98350000
C        0.34090000      -1.33170000       2.02850000
O       -0.79630000      -2.00490000       1.74850000
H        1.76290000       1.01520000      -1.01970000
H        0.32550000       2.00850000      -1.34240000
H        1.31420000       2.32290000       0.08960000
H       -0.77980000       1.11050000       0.69100000
H        2.68840000       0.97890000       1.80800000
H        1.35490000      -2.39800000       3.72180000
