19
Properties=species:S:1:pos:R:3 gdb_84240=T pbc="F F F"
C       -0.01470000       1.55270000      -0.09960000
C       -0.03040000       0.02290000      -0.03090000
C        0.84110000      -0.60120000      -1.11560000
C        1.56690000      -1.61160000      -0.59610000
C        2.99410000      -1.28230000      -0.13610000
C        2.23820000      -1.02930000       1.21690000
C        1.11490000      -1.96000000       0.83240000
C        0.68460000      -0.59720000       1.19720000
O        0.14650000      -0.38880000       2.46270000
H        1.01050000       1.93690000      -0.13970000
H       -0.54880000       1.91700000      -0.98250000
H       -0.50580000       1.98080000       0.78170000
H       -1.07730000      -0.31310000       0.00180000
H        1.22270000       0.02290000      -1.92060000
H        3.68230000      -2.12740000      -0.01310000
H        3.49810000      -0.45460000      -0.64370000
H        2.72040000      -0.99580000       2.19130000
H        0.81180000      -2.91370000       1.24370000
H        0.33700000       0.51780000       2.72630000
