21
Properties=species:S:1:pos:R:3 gdb_106779=T pbc="F F F"
C        0.05230000       1.29170000      -0.20370000
O       -0.03520000      -0.02860000       0.32290000
C       -1.29370000      -0.58870000       0.20970000
C       -1.88470000      -1.09850000      -1.07320000
C       -1.65390000      -2.05960000       0.08280000
C       -0.78560000      -3.27790000      -0.03760000
C       -2.78450000      -1.86450000       1.11100000
C       -2.37100000      -0.36270000       1.27860000
O       -1.81060000      -0.06610000       2.53930000
H        1.08330000       1.62230000      -0.06140000
H       -0.19070000       1.30520000      -1.27390000
H       -0.62250000       1.97990000       0.32190000
H       -2.88900000      -0.81960000      -1.38730000
H       -1.16900000      -1.19850000      -1.88440000
H        0.08720000      -3.07910000      -0.66760000
H       -0.42370000      -3.60360000       0.94400000
H       -1.33610000      -4.11490000      -0.48340000
H       -3.80080000      -2.06590000       0.75600000
H       -2.61020000      -2.39550000       2.04950000
H       -3.14950000       0.37860000       1.05440000
H       -0.85590000      -0.00650000       2.40960000
