14
Properties=species:S:1:pos:R:3 gdb_15929=T pbc="F F F"
N       -0.14280000      -1.17610000      -0.25310000
C       -0.06440000      -0.03380000      -0.09360000
C        0.03790000       1.40400000       0.07580000
C       -0.36920000       2.29290000      -1.13000000
O        0.85230000       3.05620000      -1.04110000
C        1.34690000       2.26460000       0.04540000
C        0.93000000       2.81740000       1.42300000
N       -0.25240000       1.90960000       1.42610000
H       -0.44060000       1.75890000      -2.08440000
H       -1.26890000       2.90100000      -0.97690000
H        2.35670000       1.88710000      -0.11720000
H        1.61140000       2.60490000       2.25320000
H        0.71870000       3.89070000       1.38750000
H       -1.16420000       2.33770000       1.54630000
