16
Properties=species:S:1:pos:R:3 gdb_123627=T pbc="F F F"
C       -0.03740000       1.57730000      -0.06340000
C        1.51210000       1.32430000       0.01410000
N        1.14620000       0.22740000       0.98620000
C       -0.02630000       0.01060000       0.04730000
C        0.65830000      -0.36370000      -1.27000000
C        1.70430000       0.53790000      -1.28030000
N        2.36530000       0.37510000      -2.43720000
N        1.81680000      -0.61360000      -3.19600000
C        0.76440000      -1.05200000      -2.48650000
H       -0.42010000       2.06490000       0.83540000
H       -0.43680000       2.01990000      -0.97600000
H        2.22940000       2.07900000       0.33230000
H        1.80770000      -0.54990000       0.94630000
H       -0.87370000      -0.55960000       0.42270000
H        3.18850000       0.84010000      -2.78080000
H        0.15660000      -1.84540000      -2.89590000
