15
Properties=species:S:1:pos:R:3 gdb_23196=T pbc="F F F"
O       -0.24710000       1.44570000       0.02560000
N        0.01190000       0.06730000       0.00480000
C       -1.06260000      -0.59600000      -0.08110000
C       -2.56150000      -0.29880000      -0.03660000
C       -2.77700000      -1.82250000       0.07000000
N       -2.22300000      -2.43070000      -1.11750000
C       -1.26380000      -2.07130000      -0.02340000
C       -0.52980000      -3.13180000       0.68030000
O       -0.83470000      -4.30250000       0.60120000
H        0.63840000       1.82000000       0.09040000
H       -2.83790000       0.25950000       0.86140000
H       -2.99980000       0.17210000      -0.91910000
H       -3.46280000      -2.34640000       0.72400000
H       -2.32890000      -3.44560000      -1.03180000
H        0.31380000      -2.78470000       1.30830000
