20
Properties=species:S:1:pos:R:3 gdb_57683=T pbc="F F F"
C        0.07760000       1.57730000       0.00140000
C        0.04060000       0.03160000       0.03750000
C        0.85120000      -0.48630000       1.24840000
C       -1.42260000      -0.49980000       0.06590000
C       -2.24840000      -0.06630000       1.29610000
C       -3.60630000      -0.60410000       1.24800000
N       -4.67680000      -1.03640000       1.19610000
C        0.65440000      -0.48200000      -1.19330000
C        1.15080000      -0.90580000      -2.20270000
H        1.10590000       1.92800000      -0.11830000
H       -0.51040000       1.96430000      -0.83560000
H       -0.31390000       2.00440000       0.93000000
H        0.46620000      -0.07610000       2.18720000
H        0.81760000      -1.57800000       1.30500000
H        1.89830000      -0.18550000       1.15890000
H       -1.93500000      -0.16310000      -0.84030000
H       -1.39900000      -1.59290000       0.02340000
H       -1.77990000      -0.40910000       2.22450000
H       -2.31710000       1.02470000       1.35880000
H        1.59200000      -1.27890000      -3.09390000
