17
Properties=species:S:1:pos:R:3 gdb_109414=T pbc="F F F"
C        0.15930000       1.32500000       0.15620000
O       -0.29250000       0.02950000      -0.20590000
C        0.51000000      -0.58030000      -1.17610000
C        1.89550000      -1.19470000      -0.78320000
O        2.91500000      -0.71520000      -0.36970000
C        1.47800000      -2.55520000      -1.24280000
C        0.20080000      -2.94010000      -0.47820000
C        0.08210000      -1.98470000      -1.60880000
O       -0.61220000      -2.25220000      -2.76740000
H        1.17550000       1.29920000       0.56740000
H        0.14850000       2.00570000      -0.70880000
H       -0.53060000       1.70260000       0.91400000
H        0.65020000       0.06610000      -2.05920000
H        2.07690000      -3.30870000      -1.73770000
H       -0.12760000      -3.95030000      -0.70200000
H        0.05190000      -2.62240000       0.54800000
H       -1.54800000      -2.33030000      -2.55160000
