16
Properties=species:S:1:pos:R:3 gdb_93480=T pbc="F F F"
O        0.04370000       1.39850000       0.12830000
C        0.02120000       0.01130000       0.00020000
C       -1.42640000      -0.51620000      -0.05720000
N       -1.44140000      -1.95180000      -0.28970000
C       -0.57380000      -2.66340000      -1.07150000
O       -0.75200000      -3.82950000      -1.35370000
C        0.68660000      -1.92140000      -1.54450000
C        0.70820000      -0.43720000      -1.28090000
O        1.18550000       0.38500000      -2.03190000
H        0.50760000       1.72030000      -0.66290000
H        0.52690000      -0.47400000       0.85130000
H       -1.91980000      -0.30360000       0.89450000
H       -1.96300000       0.03880000      -0.83940000
H       -2.26150000      -2.47430000      -0.01660000
H        1.52670000      -2.38150000      -1.00740000
H        0.84550000      -2.12340000      -2.60570000
