23
Properties=species:S:1:pos:R:3 gdb_122352=T pbc="F F F"
C       -0.10980000       1.55430000      -0.16280000
C        0.06600000       0.05540000       0.01520000
O        0.68300000      -0.46560000      -1.14160000
C        0.90270000      -1.86160000      -1.07230000
C        1.54950000      -2.29060000      -2.36450000
C        1.70150000      -3.75210000      -2.75440000
C        1.20030000      -4.88590000      -1.88400000
C        0.73350000      -2.85150000      -3.49650000
O       -0.64040000      -2.98340000      -3.26430000
H        0.85980000       2.03920000      -0.30840000
H       -0.73180000       1.76480000      -1.03750000
H       -0.58860000       1.99140000       0.71870000
H        0.68200000      -0.15770000       0.90680000
H       -0.91080000      -0.43140000       0.17950000
H        1.56150000      -2.09620000      -0.21740000
H       -0.04760000      -2.38960000      -0.91360000
H        2.36760000      -1.63580000      -2.65040000
H        2.61970000      -3.98190000      -3.28960000
H        0.19860000      -4.68540000      -1.49750000
H        1.15430000      -5.81970000      -2.45620000
H        1.86410000      -5.05950000      -1.03040000
H        0.99040000      -2.54190000      -4.50930000
H       -0.94310000      -3.77960000      -3.71310000
