16
Properties=species:S:1:pos:R:3 gdb_30394=T pbc="F F F"
C        0.01720000       1.42380000       0.10490000
N        0.08420000      -0.02280000       0.05680000
C        0.61260000      -0.59720000      -0.95580000
C        0.67660000      -2.05920000      -0.99820000
C        1.22400000      -2.66910000      -2.04700000
O        1.74770000      -1.97130000      -3.11130000
C        1.66520000      -0.61040000      -3.02190000
N        2.26080000      -0.03450000      -4.10270000
N        1.15000000       0.07130000      -2.07140000
H        0.52750000       1.77430000       1.01120000
H        0.45160000       1.92900000      -0.76470000
H       -1.03210000       1.72960000       0.20590000
H        0.27200000      -2.62630000      -0.17110000
H        1.32710000      -3.73520000      -2.19490000
H        2.36940000      -0.59780000      -4.92980000
H        2.06620000       0.94460000      -4.23100000
