19
Properties=species:S:1:pos:R:3 gdb_95231=T pbc="F F F"
C        0.12390000       1.61030000      -0.08120000
C       -0.05720000       0.10480000       0.05640000
O        0.31780000      -0.45510000      -1.21210000
C        0.59510000      -1.84490000      -1.24930000
C       -0.39000000      -2.71090000      -0.47830000
O        0.20670000      -3.76450000       0.28810000
C       -0.37540000      -2.65810000       0.99350000
C        0.55410000      -1.71150000       1.67510000
C        0.71510000      -0.46280000       1.23780000
H        1.18120000       1.85550000      -0.22250000
H       -0.43300000       1.97930000      -0.94580000
H       -0.23840000       2.12360000       0.81490000
H       -1.12500000      -0.10690000       0.21830000
H        0.59170000      -2.10970000      -2.31130000
H        1.59280000      -2.06480000      -0.84940000
H       -1.31640000      -2.98700000      -0.98090000
H       -1.28230000      -2.92940000       1.53700000
H        1.10470000      -2.08230000       2.53630000
H        1.41930000       0.20130000       1.73390000
