19
Properties=species:S:1:pos:R:3 gdb_78251=T pbc="F F F"
C       -0.08040000       1.67010000      -0.10350000
C        0.02730000       0.14850000      -0.09480000
C        0.74750000      -0.56200000      -1.25040000
C        2.22670000      -0.32600000      -1.26640000
O        2.82380000       0.89620000      -0.96950000
C        1.69340000      -1.29090000      -0.25520000
C        1.00080000      -0.60440000       0.92540000
C        1.79370000       0.20870000       1.90800000
O        2.93890000       0.57850000       1.76970000
H        0.89910000       2.13740000      -0.20960000
H       -0.69720000       1.98890000      -0.95110000
H       -0.56230000       2.03930000       0.80890000
H       -0.96900000      -0.28310000       0.03490000
H        0.23140000      -0.96920000      -2.11260000
H        2.70940000      -0.83990000      -2.09940000
H        3.23290000       0.81360000      -0.09370000
H        2.00160000      -2.32980000      -0.23630000
H        0.40020000      -1.30850000       1.51070000
H        1.23980000       0.48070000       2.83360000
