13
Properties=species:S:1:pos:R:3 gdb_53934=T pbc="F F F"
N        0.13660000       1.12270000      -0.64270000
C        0.08030000       0.05080000       0.17370000
O        0.95870000      -0.35250000       0.89650000
C       -1.28740000      -0.72710000       0.07890000
O       -2.25000000       0.11870000      -0.53810000
C       -1.07020000      -1.95170000      -0.69460000
C       -0.92570000      -2.93680000      -1.36500000
C       -1.72020000      -1.06720000       1.45490000
N       -2.12280000      -1.31410000       2.50820000
H        0.96510000       1.69430000      -0.62340000
H       -0.68430000       1.42890000      -1.13680000
H       -2.99070000      -0.42620000      -0.82870000
H       -0.78440000      -3.81580000      -1.94590000
