21
Properties=species:S:1:pos:R:3 gdb_58845=T pbc="F F F"
C       -0.08080000       1.59370000       0.33020000
C       -0.00030000       0.08650000       0.03230000
C        0.92570000      -0.63610000       1.01880000
C       -1.39340000      -0.50210000      -0.02980000
C       -2.21820000      -0.93620000       1.17980000
C       -1.97900000      -1.94140000       0.10900000
C       -2.97690000      -1.70280000      -1.03310000
C       -2.33350000      -0.29870000      -1.18360000
O       -2.39540000       0.53970000      -2.04090000
H        0.91460000       2.04890000       0.29880000
H       -0.71380000       2.09770000      -0.40460000
H       -0.50200000       1.77200000       1.32620000
H        0.42910000      -0.02670000      -0.97290000
H        1.94050000      -0.23260000       0.94690000
H        0.59610000      -0.50190000       2.05500000
H        0.97890000      -1.71040000       0.81430000
H       -1.63760000      -1.04960000       2.08920000
H       -3.21620000      -0.53650000       1.34210000
H       -1.41840000      -2.85270000       0.27000000
H       -2.79280000      -2.29440000      -1.93460000
H       -4.03970000      -1.75770000      -0.77840000
