16
Properties=species:S:1:pos:R:3 gdb_13073=T pbc="F F F"
C        0.06670000       1.51990000      -0.08050000
C        0.03510000       0.06730000      -0.01140000
C       -0.00030000      -1.13460000       0.04920000
C       -0.01570000      -2.58360000       0.12280000
O        0.10010000      -3.10620000       1.47700000
C       -1.27190000      -3.55150000       1.48190000
C       -1.40210000      -3.28000000      -0.03210000
O       -2.43270000      -2.44850000      -0.48420000
H        0.86310000       1.87240000      -0.74520000
H       -0.88270000       1.91920000      -0.45390000
H        0.24330000       1.95550000       0.90910000
H        0.77370000      -3.00270000      -0.51300000
H       -1.36650000      -4.58770000       1.82570000
H       -1.91890000      -2.89750000       2.08120000
H       -1.32030000      -4.19310000      -0.63390000
H       -3.19250000      -2.99460000      -0.70600000
