18
Properties=species:S:1:pos:R:3 gdb_46142=T pbc="F F F"
O        0.00340000      -0.08190000       0.01260000
C       -0.01360000       1.12510000      -0.00670000
C       -1.30880000       1.92910000       0.00420000
C       -1.32660000       3.02010000      -1.08180000
C       -0.06560000       3.90940000      -0.99600000
C        1.21690000       3.05530000      -1.11620000
C        1.25860000       1.96470000      -0.03050000
C       -0.09390000       4.95690000      -2.01850000
N       -0.11620000       5.77490000      -2.83470000
H       -2.14900000       1.24050000      -0.10770000
H       -1.39610000       2.40260000       0.99280000
H       -1.36370000       2.55710000      -2.07460000
H       -2.22660000       3.63380000      -0.98550000
H       -0.05930000       4.41270000      -0.01890000
H        1.23990000       2.59320000      -2.10980000
H        2.10180000       3.69390000      -1.04400000
H        1.35960000       2.44080000       0.95560000
H        2.11430000       1.29960000      -0.16540000
