19
Properties=species:S:1:pos:R:3 gdb_83286=T pbc="F F F"
C        0.05340000       1.51020000       0.00590000
C        0.06350000      -0.00710000      -0.05250000
C        0.61880000      -0.54270000      -1.36750000
O        0.64450000      -1.96470000      -1.40690000
C        0.95720000      -2.61670000      -0.21510000
C        2.26490000      -2.43070000       0.53270000
O        3.20600000      -1.50920000       0.08160000
C        0.96680000      -1.87010000       1.09870000
O        0.88760000      -0.47090000       1.03110000
H        1.05800000       1.91180000      -0.16010000
H       -0.61420000       1.91940000      -0.75790000
H       -0.29200000       1.84710000       0.98650000
H       -0.95360000      -0.40180000       0.09150000
H       -0.01800000      -0.23130000      -2.20160000
H        1.62790000      -0.13980000      -1.52640000
H        0.53470000      -3.61700000      -0.21740000
H        2.70100000      -3.30770000       1.00610000
H        2.95500000      -0.65890000       0.47040000
H        0.50640000      -2.28810000       1.99120000
