15
Properties=species:S:1:pos:R:3 gdb_3031=T pbc="F F F"
C       -0.03610000      -1.17630000      -0.08680000
C        0.00370000       0.02460000      -0.11840000
C        0.08710000       1.47880000      -0.14460000
C        1.46820000       2.00870000       0.30010000
C        1.51710000       3.51570000       0.27260000
C        2.70140000       4.25800000      -0.17450000
O        1.55930000       4.12480000      -1.02250000
H       -0.08620000      -2.23660000      -0.06520000
H       -0.11950000       1.84720000      -1.15660000
H       -0.69300000       1.90250000       0.50170000
H        1.68810000       1.65340000       1.31350000
H        2.24050000       1.60460000      -0.36170000
H        0.84020000       4.01840000       0.96740000
H        2.88920000       5.26170000       0.20420000
H        3.58690000       3.70970000      -0.49380000
