20
Properties=species:S:1:pos:R:3 gdb_105348=T pbc="F F F"
C        0.23320000       1.59120000       0.37680000
C       -0.03020000       0.11280000       0.06470000
C        0.64250000      -0.42420000      -1.21090000
C        2.23210000      -0.44100000      -1.24000000
C        2.16190000      -1.95780000      -1.42550000
N        1.45130000      -2.49220000      -0.23820000
C        0.67720000      -1.95370000      -1.38060000
C        0.12880000       0.26080000      -2.45250000
O       -0.43150000      -0.29430000      -3.36570000
H        1.30620000       1.80440000       0.42990000
H       -0.20230000       2.26270000      -0.36950000
H       -0.20220000       1.85630000       1.34510000
H        0.33230000      -0.50840000       0.88930000
H       -1.11160000      -0.06250000      -0.00850000
H        2.64770000       0.08780000      -2.10230000
H        2.72920000      -0.10060000      -0.32810000
H        2.83720000      -2.58120000      -1.99780000
H        1.43910000      -3.50810000      -0.32610000
H       -0.04190000      -2.55420000      -1.92070000
H        0.31670000       1.35790000      -2.48790000
