18
Properties=species:S:1:pos:R:3 gdb_111020=T pbc="F F F"
C       -0.02280000       1.63710000       0.02340000
C       -0.20370000       0.11430000      -0.03390000
C        0.57830000      -0.50770000      -1.17890000
C        2.10990000      -0.79750000      -1.14170000
C        1.89410000      -1.98890000      -0.17860000
C        0.83810000      -2.04500000      -1.31530000
O        1.91390000      -1.73550000      -2.28080000
C       -0.10470000      -3.09220000      -1.62680000
N       -0.88730000      -3.91550000      -1.84020000
H        1.02300000       1.90830000       0.20280000
H       -0.33130000       2.10830000      -0.91570000
H       -0.62260000       2.07150000       0.82800000
H        0.07840000      -0.32420000       0.92860000
H       -1.26520000      -0.12260000      -0.17770000
H        0.28590000      -0.08850000      -2.14560000
H        2.94990000      -0.10910000      -1.20880000
H        2.65240000      -2.76890000      -0.23860000
H        1.55420000      -1.80020000       0.83960000
