23
Properties=species:S:1:pos:R:3 gdb_101469=T pbc="F F F"
C        0.08320000       1.60890000      -0.02460000
C       -0.03160000       0.07870000      -0.01910000
C        0.57960000      -0.52510000      -1.28600000
O       -0.11390000       0.00730000      -2.40860000
C        0.61240000      -0.52370000       1.22810000
C       -0.02170000      -0.11430000       2.57670000
C        0.12190000      -1.38320000       3.45680000
C        0.76440000      -2.41020000       2.49820000
O        0.48880000      -1.94410000       1.18890000
H        1.13300000       1.92270000       0.03220000
H       -0.33680000       2.01150000      -0.94810000
H       -0.44690000       2.05790000       0.82050000
H       -1.09380000      -0.20010000      -0.00930000
H        1.65360000      -0.27340000      -1.32940000
H        0.49410000      -1.61770000      -1.24460000
H        0.23580000      -0.41080000      -3.20010000
H        1.68710000      -0.26050000       1.24090000
H        0.47140000       0.75810000       3.01130000
H       -1.07590000       0.14010000       2.43210000
H        0.74250000      -1.21460000       4.34030000
H       -0.85460000      -1.72900000       3.80410000
H        1.85320000      -2.46460000       2.66370000
H        0.35490000      -3.41950000       2.59010000
