15
Properties=species:S:1:pos:R:3 gdb_34592=T pbc="F F F"
N        0.13330000      -1.08140000      -0.21170000
C        0.03400000       0.06300000      -0.09260000
C       -0.08290000       1.48720000       0.05700000
N       -1.15720000       2.14020000      -0.12710000
C       -0.80930000       3.54590000       0.13490000
C        0.68000000       3.51480000       0.49920000
C        1.71330000       4.51020000       0.08970000
C        1.35070000       4.32650000       1.55640000
O        1.05430000       2.12500000       0.41770000
H       -1.01620000       4.14570000      -0.75850000
H       -1.43750000       3.93260000       0.94520000
H        2.67270000       4.12590000      -0.23730000
H        1.37790000       5.40480000      -0.42520000
H        0.76540000       5.09460000       2.05180000
H        2.07310000       3.82220000       2.18790000
