20
Properties=species:S:1:pos:R:3 gdb_118458=T pbc="F F F"
N       -0.10120000       0.92050000       0.08710000
H        0.06910000      -0.07480000       0.18340000
H        1.21200000       2.07760000       0.17550000
H       -0.70060000       1.04590000      -0.72320000
C       -0.74270000       1.47160000       1.29730000
C       -0.64560000       3.01230000       1.31450000
C       -1.48920000       3.62580000       2.44200000
C       -1.87230000       5.08910000       2.19390000
O       -2.67810000       5.61250000       3.23900000
C        0.81900000       3.49910000       1.38070000
O        1.67830000       2.85360000       0.58670000
O        1.17350000       4.40990000       2.08690000
H       -1.79740000       1.17930000       1.38440000
H       -0.22140000       1.05830000       2.16780000
H       -1.03890000       3.36440000       0.34680000
H       -2.41370000       3.05020000       2.56920000
H       -0.93060000       3.55910000       3.38260000
H       -0.96690000       5.68710000       2.04060000
H       -2.48250000       5.16070000       1.28500000
H       -2.10770000       5.74870000       4.00200000
