23
Properties=species:S:1:pos:R:3 gdb_94434=T pbc="F F F"
C       -0.67120000       1.13000000      -0.02690000
C        0.19500000      -0.11600000      -0.12500000
C        1.61750000      -0.00270000      -0.73820000
C        2.10660000      -1.05110000       0.29400000
C        0.84360000      -0.77190000       1.14050000
C        0.92180000       0.05260000       2.45720000
C       -0.24740000      -0.79830000       3.02320000
C        0.05840000      -1.84670000       1.92050000
O       -1.00460000      -2.42530000       1.19750000
H       -0.15230000       1.95100000       0.47970000
H       -0.94120000       1.48570000      -1.02790000
H       -1.60360000       0.93230000       0.51320000
H       -0.36260000      -0.90240000      -0.64370000
H        1.73120000      -0.23730000      -1.79970000
H        2.05690000       0.98310000      -0.55260000
H        2.09750000      -2.06660000      -0.11550000
H        3.07320000      -0.87860000       0.77640000
H        1.86140000      -0.13160000       2.98750000
H        0.76880000       1.13180000       2.39570000
H       -0.19640000      -1.11710000       4.06760000
H       -1.21700000      -0.32790000       2.83770000
H        0.74510000      -2.62100000       2.29810000
H       -1.42710000      -3.08730000       1.75330000
