19
Properties=species:S:1:pos:R:3 gdb_63178=T pbc="F F F"
C       -0.07660000       1.57820000       0.02400000
C        0.02380000       0.07440000       0.02000000
O       -1.09890000      -0.59850000      -0.49150000
C        1.34600000      -0.65400000      -0.21650000
O        2.52930000       0.09880000      -0.07220000
C        2.78920000       0.09960000       1.32160000
O        1.53260000       0.07930000       1.97000000
C        0.69030000      -0.70960000       1.13980000
C        0.07770000      -1.91020000       1.80240000
H        0.80540000       2.03770000       0.46830000
H       -0.17530000       1.95500000      -1.00130000
H       -0.95950000       1.89170000       0.58930000
H       -1.16830000      -0.38340000      -1.42890000
H        1.39440000      -1.49870000      -0.89760000
H        3.38310000      -0.78820000       1.59940000
H        3.31970000       1.01700000       1.59000000
H       -0.52950000      -1.60200000       2.65970000
H       -0.56750000      -2.43980000       1.10000000
H        0.85460000      -2.59250000       2.16220000
