17
Properties=species:S:1:pos:R:3 gdb_16579=T pbc="F F F"
C       -0.58240000       1.25260000      -0.15670000
C       -0.36090000      -0.19870000      -0.51640000
C        0.47300000      -0.75610000      -1.59960000
C        1.76240000       0.01290000      -1.90390000
C        1.80460000       1.31310000      -2.69710000
C        1.98870000      -0.04090000      -0.38170000
O        2.79670000       0.39640000       0.37730000
N        0.87820000      -0.94580000      -0.12230000
H       -1.39560000       1.66820000      -0.76090000
H       -0.87200000       1.32890000       0.89610000
H        0.30410000       1.87260000      -0.29720000
H       -1.22670000      -0.81920000      -0.29070000
H        0.14540000      -1.62020000      -2.16740000
H        2.48410000      -0.69440000      -2.33360000
H        1.06540000       2.03880000      -2.35150000
H        2.79480000       1.77080000      -2.60960000
H        1.61510000       1.12330000      -3.75830000
