17
Properties=species:S:1:pos:R:3 gdb_6789=T pbc="F F F"
N       -0.18480000       1.28820000       0.12220000
C        0.05400000      -0.05550000       0.03350000
O        1.14650000      -0.57030000      -0.01610000
O       -1.12040000      -0.73280000       0.04510000
C       -0.99610000      -2.16260000       0.01380000
C       -2.40150000      -2.74080000       0.02330000
C       -2.39550000      -4.26420000      -0.00590000
O       -3.74640000      -4.69700000       0.00180000
H        0.59100000       1.88980000      -0.09450000
H       -1.11240000       1.62770000      -0.06770000
H       -0.43940000      -2.45650000      -0.88270000
H       -0.41340000      -2.49200000       0.88090000
H       -2.93460000      -2.40320000       0.91840000
H       -2.96020000      -2.37010000      -0.84280000
H       -1.86730000      -4.61960000      -0.90590000
H       -1.84630000      -4.65330000       0.86720000
H       -3.75400000      -5.65840000      -0.01310000
