22
Properties=species:S:1:pos:R:3 gdb_8316=T pbc="F F F"
C        0.02830000       1.39140000      -0.03420000
O        0.12410000      -0.01100000      -0.05130000
C        0.53930000      -0.55110000       1.18600000
C        0.63520000      -2.05530000       1.05230000
C        1.75720000      -2.65870000       0.16500000
C        1.95460000      -3.77260000       1.23230000
C        3.36180000      -4.24650000       1.55950000
C        1.20580000      -2.86340000       2.24960000
H        0.99670000       1.86640000       0.19260000
H       -0.29630000       1.71190000      -1.02750000
H       -0.70480000       1.74400000       0.70940000
H        1.51990000      -0.13220000       1.47670000
H       -0.17510000      -0.27860000       1.98420000
H       -0.34180000      -2.44700000       0.75060000
H        1.49990000      -2.95860000      -0.85310000
H        2.62650000      -1.99210000       0.12120000
H        1.32330000      -4.63340000       0.98260000
H        4.01120000      -3.40110000       1.81500000
H        3.36400000      -4.93720000       2.41060000
H        3.81450000      -4.76740000       0.70810000
H        1.91270000      -2.26280000       2.83480000
H        0.49790000      -3.33220000       2.93800000
