18
Properties=species:S:1:pos:R:3 gdb_84808=T pbc="F F F"
C        0.19880000       1.57470000      -0.13580000
C        0.08480000       0.05640000      -0.00580000
N        0.74890000      -0.62690000      -1.13520000
C        1.49630000      -1.50840000      -0.62590000
O        1.54970000      -1.65840000       0.72270000
C        0.74150000      -0.58760000       1.26730000
C        1.61010000       0.32560000       2.10530000
C        2.90650000      -0.09740000       2.64750000
O        2.82470000       0.78250000       1.52000000
H        1.24230000       1.89550000      -0.10910000
H       -0.23410000       1.88540000      -1.08980000
H       -0.34620000       2.08260000       0.66670000
H       -0.97780000      -0.21480000      -0.03840000
H        2.12440000      -2.20210000      -1.17350000
H       -0.01070000      -1.04190000       1.92100000
H        1.05020000       1.08990000       2.64710000
H        3.27620000       0.35700000       3.56530000
H        3.27190000      -1.09590000       2.42460000
