15
Properties=species:S:1:pos:R:3 gdb_84194=T pbc="F F F"
O        0.13120000       1.43800000      -0.08610000
C        0.08520000       0.03730000       0.06550000
C        0.67140000      -0.46840000       1.35690000
C       -0.21800000      -1.28480000       1.94770000
N       -1.41260000      -1.37890000       1.18200000
C       -1.36020000      -0.47670000       0.13230000
N       -2.25680000      -0.04140000      -0.65540000
C       -0.09820000      -2.03390000       3.14090000
C       -0.03320000      -2.67230000       4.15940000
H       -0.63810000       1.65970000      -0.63080000
H        0.58790000      -0.45750000      -0.78620000
H        1.67400000      -0.27170000       1.70110000
H       -2.28090000      -1.66870000       1.60500000
H       -3.18080000      -0.42910000      -0.46390000
H        0.04270000      -3.23340000       5.05820000
