19
Properties=species:S:1:pos:R:3 gdb_73728=T pbc="F F F"
O       -0.04220000       1.34080000       0.00100000
C        0.02100000      -0.06340000       0.01480000
C        1.14800000      -0.65440000      -0.81260000
C        1.13780000      -2.19370000      -0.90360000
C       -0.27790000      -2.77850000      -1.03870000
C       -1.18980000      -2.17770000       0.02470000
O       -0.50460000      -2.08430000       1.32210000
C       -0.59170000      -0.66330000       1.26860000
C       -1.36290000      -0.65340000      -0.02960000
H        0.72280000       1.67310000       0.48440000
H        1.05280000      -0.21540000      -1.81450000
H        2.11630000      -0.31630000      -0.41900000
H        1.76040000      -2.51300000      -1.74570000
H        1.58530000      -2.60850000       0.00260000
H       -0.71150000      -2.56400000      -2.02450000
H       -0.23740000      -3.86860000      -0.93660000
H       -2.12930000      -2.72600000       0.14230000
H       -0.71670000      -0.11450000       2.19560000
H       -2.23720000      -0.10090000      -0.34540000
