16
Properties=species:S:1:pos:R:3 gdb_109192=T pbc="F F F"
C        0.11330000       1.32110000      -0.15670000
N        0.10980000      -0.11650000       0.04440000
C        0.60310000      -0.65270000       1.18300000
N        1.26840000      -0.06600000       2.09900000
C        1.64210000      -1.08440000       3.06850000
C        0.97850000      -2.40470000       2.52850000
O        0.34770000      -2.00030000       1.30350000
C        1.93540000      -3.48240000       2.26300000
N        2.70320000      -4.32810000       2.08940000
H        1.09730000       1.71250000       0.10750000
H       -0.08290000       1.53220000      -1.21000000
H       -0.63520000       1.83680000       0.45870000
H       -0.57800000      -0.67190000      -0.43690000
H        2.72970000      -1.18860000       3.14190000
H        1.26470000      -0.84300000       4.06780000
H        0.20520000      -2.78490000       3.20300000
