23
Properties=species:S:1:pos:R:3 gdb_59128=T pbc="F F F"
C        0.03090000       1.52770000      -0.10650000
C        0.08520000       0.01180000       0.13330000
C        0.77570000      -0.31040000       1.46660000
C       -1.31490000      -0.59770000       0.08410000
C       -2.04970000      -0.75340000      -1.26830000
C       -1.26760000      -2.06200000      -1.64920000
C       -2.56540000      -2.83940000      -1.94300000
C       -2.91430000      -1.94800000      -0.73630000
C       -1.49450000      -2.12370000      -0.09550000
H        1.03380000       1.96750000      -0.09730000
H       -0.43050000       1.76530000      -1.07040000
H       -0.55610000       2.02580000       0.67490000
H        0.68210000      -0.43650000      -0.67310000
H        0.84830000      -1.39040000       1.63030000
H        1.78960000       0.10250000       1.49890000
H        0.21750000       0.11670000       2.30870000
H       -1.94000000      -0.16860000       0.88140000
H       -2.38860000       0.01460000      -1.96690000
H       -0.30970000      -2.11760000      -2.16770000
H       -3.07280000      -2.61360000      -2.88690000
H       -2.54330000      -3.92030000      -1.76860000
H       -3.85330000      -1.85840000      -0.18700000
H       -1.19100000      -2.94070000       0.56250000
