16
Properties=species:S:1:pos:R:3 gdb_53362=T pbc="F F F"
C        0.06140000       1.53230000      -0.13650000
C        0.03520000       0.08260000      -0.01940000
C        0.00110000      -1.11670000       0.07210000
C       -0.01000000      -2.56280000       0.18560000
C        0.53260000      -3.10790000       1.53160000
N       -0.29780000      -4.28730000       1.66880000
C       -1.48710000      -4.14000000       0.98030000
O       -2.48120000      -4.80200000       1.07350000
O       -1.35690000      -3.08600000       0.11630000
H        0.61090000       1.84930000      -1.02920000
H       -0.95520000       1.93320000      -0.21040000
H        0.53890000       1.99350000       0.73460000
H        0.55230000      -3.01220000      -0.64330000
H        1.59660000      -3.34780000       1.46530000
H        0.38040000      -2.37890000       2.33770000
H       -0.33740000      -4.81050000       2.52870000
