16
Properties=species:S:1:pos:R:3 gdb_38009=T pbc="F F F"
C       -0.03700000       1.50470000      -0.12230000
C        1.53090000       1.55720000      -0.05000000
N        1.90010000       1.39100000      -1.47700000
C        1.85570000       0.13620000      -1.63140000
O        0.90730000      -0.56800000      -2.38050000
C        0.51230000      -1.07910000      -1.03070000
C       -0.00010000      -0.03510000       0.10030000
C        1.46880000       0.09970000       0.62860000
C        1.92050000      -0.84820000      -0.46610000
H       -0.50170000       1.98100000       0.74890000
H       -0.47650000       1.90040000      -1.03990000
H        2.01250000       2.40110000       0.44520000
H       -0.01730000      -2.02490000      -1.13660000
H       -0.79120000      -0.47380000       0.70850000
H        1.74040000      -0.02140000       1.67320000
H        2.71230000      -1.59370000      -0.44350000
