15
Properties=species:S:1:pos:R:3 gdb_105149=T pbc="F F F"
O        0.14310000       1.31660000      -0.36650000
C        0.03520000       0.09210000       0.32220000
C       -1.37200000      -0.48270000       0.19060000
N       -1.65570000      -0.99530000      -1.16750000
C       -1.58450000      -1.95920000      -0.05770000
C       -0.48900000      -2.89920000      -0.06890000
N        0.37690000      -3.66490000      -0.04970000
C       -2.42170000       0.20940000       0.89120000
C       -3.29670000       0.79430000       1.47180000
H       -0.01240000       1.12690000      -1.29910000
H        0.75630000      -0.65160000      -0.04180000
H        0.25400000       0.29820000       1.37330000
H       -2.63050000      -0.83520000      -1.41110000
H       -2.51250000      -2.37290000       0.32580000
H       -4.06390000       1.31870000       1.98700000
