19
Properties=species:S:1:pos:R:3 gdb_71060=T pbc="F F F"
C       -0.27090000       1.53960000      -0.28410000
C       -0.01070000       0.07460000      -0.10150000
C        0.13610000      -1.02580000      -1.09990000
C        1.58210000      -1.54660000      -1.00980000
C        1.78470000      -1.39880000       0.49660000
C        0.81160000      -0.62080000       1.01110000
C       -0.42700000      -1.32390000       1.57240000
C       -0.93330000      -1.08040000       0.09590000
O       -2.28050000      -1.05790000      -0.23100000
H        0.62700000       2.06440000      -0.62870000
H       -1.06090000       1.69810000      -1.02460000
H       -0.59060000       2.00900000       0.65270000
H       -0.36490000      -0.94090000      -2.06320000
H        1.70270000      -2.60530000      -1.27310000
H        2.25020000      -0.97980000      -1.67570000
H        2.25780000      -2.19520000       1.06480000
H       -0.29170000      -2.34090000       1.95340000
H       -1.07360000      -0.74690000       2.24370000
H       -2.56230000      -1.96090000      -0.41370000
