19
Properties=species:S:1:pos:R:3 gdb_97605=T pbc="F F F"
C       -0.06330000       1.48510000      -0.27130000
C       -0.03480000      -0.02150000       0.05710000
C        0.73740000      -0.30180000       1.37210000
C        2.20740000       0.03360000       1.25530000
O        2.83220000       0.69770000       2.04040000
C       -1.38370000      -0.57970000       0.11760000
C       -2.49690000      -1.03380000       0.17890000
C       -3.84970000      -1.57050000       0.25940000
O       -3.95600000      -2.72460000      -0.56590000
H        0.95310000       1.88390000      -0.35060000
H       -0.58020000       1.66440000      -1.21700000
H       -0.58550000       2.03920000       0.51420000
H        0.50060000      -0.53540000      -0.75510000
H        0.30680000       0.25120000       2.21140000
H        0.66600000      -1.37410000       1.59840000
H        2.70330000      -0.40580000       0.35590000
H       -4.07970000      -1.81020000       1.31060000
H       -4.56450000      -0.79100000      -0.05140000
H       -4.85910000      -3.04910000      -0.48890000
