17
Properties=species:S:1:pos:R:3 gdb_42851=T pbc="F F F"
O       -0.19380000      -0.00400000       0.01010000
C       -0.10890000       1.18410000       0.01380000
C       -0.99310000       2.44330000      -0.02630000
C       -0.03130000       2.96300000       1.09710000
C        0.95010000       2.30160000       0.06970000
C        0.07620000       2.99450000      -1.03570000
C        0.11410000       2.47810000      -2.47710000
C       -0.95970000       3.03890000      -3.28980000
C       -1.85390000       3.51880000      -3.93340000
H       -2.07430000       2.54060000      -0.08370000
H        0.04500000       4.05080000       1.15790000
H       -0.11230000       2.50320000       2.08300000
H        2.03480000       2.23750000       0.12390000
H        0.14780000       4.08520000      -1.00550000
H        1.08400000       2.73430000      -2.92340000
H        0.05200000       1.38240000      -2.48880000
H       -2.64050000       3.93160000      -4.51510000
