20
Properties=species:S:1:pos:R:3 gdb_53518=T pbc="F F F"
C       -0.29100000       1.41900000       0.15860000
C       -0.19630000      -0.03340000       0.11700000
C       -0.10570000      -1.23410000       0.09410000
C       -0.02000000      -2.68900000       0.06120000
C       -1.39270000      -3.38640000      -0.04370000
C       -1.25600000      -4.89400000      -0.21370000
O       -2.14310000      -3.16360000       1.15340000
C       -3.02190000      -2.14220000       1.17440000
N       -3.64430000      -1.86940000       2.23850000
H        0.70290000       1.87970000       0.17370000
H       -0.82320000       1.81180000      -0.71490000
H       -0.82520000       1.75610000       1.05360000
H        0.59350000      -3.00930000      -0.79070000
H        0.47820000      -3.06120000       0.96530000
H       -1.94020000      -2.96220000      -0.89620000
H       -2.24260000      -5.36040000      -0.26680000
H       -0.70760000      -5.12920000      -1.13050000
H       -0.71850000      -5.32740000       0.63510000
H       -3.12390000      -1.63330000       0.20740000
H       -4.28070000      -1.09240000       2.07330000
