18
Properties=species:S:1:pos:R:3 gdb_98306=T pbc="F F F"
C       -0.25390000       1.30650000       0.15570000
O       -0.15820000      -0.12260000       0.24580000
C        0.77000000      -0.58980000       1.10190000
O        1.49770000       0.11280000       1.75560000
C        0.81090000      -2.12790000       1.09870000
N        1.78310000      -2.67380000       2.02760000
C       -0.57380000      -2.70520000       1.36600000
C       -0.75430000      -4.04320000       1.93480000
O       -0.92640000      -2.86610000       2.74080000
H        0.69470000       1.73350000      -0.17870000
H       -1.04110000       1.50630000      -0.57110000
H       -0.51050000       1.73540000       1.12720000
H        1.08110000      -2.41510000       0.07160000
H        2.63430000      -2.12270000       1.97460000
H        1.42140000      -2.53300000       2.96830000
H       -1.36180000      -2.28820000       0.74260000
H       -1.66950000      -4.59370000       1.72390000
H        0.12350000      -4.63750000       2.17160000
