18
Properties=species:S:1:pos:R:3 gdb_54529=T pbc="F F F"
N        0.09630000       1.26450000      -0.27500000
C       -0.04580000       0.04400000       0.32980000
O        0.79870000      -0.40160000       1.08870000
C       -1.27430000      -0.72980000      -0.02490000
C       -1.77330000      -1.72350000       1.02820000
C       -1.14780000      -2.23560000      -0.22430000
O       -1.95580000      -2.64730000      -1.28820000
C       -2.92500000      -1.62890000      -1.52680000
C       -2.28270000      -0.29370000      -1.07890000
H        0.86930000       1.83180000       0.03470000
H       -0.67840000       1.72850000      -0.71550000
H       -1.16080000      -1.76970000       1.92090000
H       -2.84230000      -1.82260000       1.18030000
H       -0.18640000      -2.73230000      -0.20180000
H       -3.18310000      -1.65330000      -2.58840000
H       -3.83950000      -1.82890000      -0.95190000
H       -3.04060000       0.40760000      -0.71440000
H       -1.75690000       0.17330000      -1.91890000
