20
Properties=species:S:1:pos:R:3 gdb_48440=T pbc="F F F"
O       -0.90450000       0.85830000      -0.41350000
C        0.07040000       0.95760000       0.29020000
C        1.23820000       1.90360000       0.10310000
C        1.56150000       2.59890000       1.47610000
C        2.64180000       1.52610000       1.76380000
C        2.58080000       1.10290000       0.27460000
N        1.24990000       2.81410000      -1.02060000
C        0.74170000       2.44430000      -2.34030000
C        0.04180000       3.47160000      -1.51540000
H        0.17830000       0.30710000       1.19190000
H        1.98740000       3.58230000       1.27060000
H        0.74280000       2.70520000       2.19240000
H        3.60400000       1.88270000       2.13610000
H        2.28580000       0.74220000       2.43780000
H        2.56280000       0.03400000       0.04700000
H        3.34790000       1.58550000      -0.33320000
H        1.37530000       2.74600000      -3.17050000
H        0.23170000       1.49500000      -2.46120000
H       -0.91980000       3.18520000      -1.10400000
H        0.16080000       4.52880000      -1.73890000
