18
Properties=species:S:1:pos:R:3 gdb_92523=T pbc="F F F"
C       -0.08810000       1.36960000      -0.21460000
N       -0.06630000      -0.06110000      -0.02180000
C       -1.26110000      -0.80500000       0.33910000
C       -0.80330000      -2.27230000       0.36510000
C       -0.75960000      -3.02350000      -0.98310000
O        0.68500000      -2.99650000      -1.01240000
C        0.73100000      -2.24780000       0.22330000
C        1.10260000      -0.78050000      -0.01840000
O        2.21480000      -0.33180000      -0.19880000
H        0.93470000       1.68840000      -0.42300000
H       -0.73500000       1.64490000      -1.05630000
H       -0.45270000       1.88630000       0.68280000
H       -1.64060000      -0.47870000       1.31850000
H       -2.06450000      -0.63600000      -0.39090000
H       -1.22840000      -2.83370000       1.19540000
H       -1.14230000      -4.05030000      -0.96570000
H       -1.20220000      -2.48990000      -1.83430000
H        1.37840000      -2.71560000       0.96930000
