17
Properties=species:S:1:pos:R:3 gdb_82597=T pbc="F F F"
O        0.13910000       1.39440000      -0.26300000
C       -0.01280000       0.03730000       0.02060000
C        0.19580000      -0.53590000       1.45330000
O       -0.58290000       0.15430000       2.47290000
C       -1.76230000      -0.61130000       2.13200000
C       -2.42780000       0.07710000       0.92030000
O       -2.44270000       1.49020000       0.98090000
C       -1.40850000      -0.62900000      -0.03260000
C       -0.96670000      -1.53940000       1.18190000
H       -0.70070000       1.82030000      -0.04800000
H        0.66910000      -0.52470000      -0.63270000
H        1.20260000      -0.76050000       1.80790000
H       -2.34800000      -0.88800000       3.01040000
H       -3.44630000      -0.28110000       0.73990000
H       -1.80660000       1.71100000       1.68080000
H       -1.77830000      -0.98600000      -0.99280000
H       -0.91780000      -2.62270000       1.20770000
