18
Properties=species:S:1:pos:R:3 gdb_122482=T pbc="F F F"
O       -0.11320000       1.39420000      -0.44860000
C       -0.00130000       0.05830000       0.01280000
C       -1.38340000      -0.57680000      -0.06840000
C       -1.39350000      -2.02640000       0.43330000
C       -2.76830000      -2.63700000       0.34720000
O       -3.22640000      -3.04820000      -0.94250000
C       -3.01280000      -4.06410000       0.03790000
C       -1.91580000      -4.97880000      -0.19850000
N       -1.04980000      -5.72590000      -0.36560000
H        0.76200000       1.79210000      -0.43770000
H        0.70890000      -0.52070000      -0.59970000
H        0.36380000       0.02290000       1.05310000
H       -2.08110000       0.03350000       0.51810000
H       -1.72850000      -0.54280000      -1.10740000
H       -0.69220000      -2.63610000      -0.14630000
H       -1.06450000      -2.06680000       1.48030000
H       -3.54050000      -2.14910000       0.94540000
H       -3.91500000      -4.54300000       0.41440000
