20
Properties=species:S:1:pos:R:3 gdb_107992=T pbc="F F F"
C        0.01390000       1.40730000      -0.02100000
O       -0.01430000      -0.00870000      -0.03130000
C       -1.28580000      -0.54660000      -0.00190000
C       -2.45970000      -0.41940000      -0.99010000
N       -2.99410000      -1.40890000       0.04530000
C       -1.58690000      -2.05580000       0.04710000
C       -1.35670000      -2.61590000       1.44290000
C       -1.94530000      -1.44310000       2.27630000
C       -2.35600000      -0.52290000       1.13610000
H        1.06330000       1.70810000      -0.04020000
H       -0.49360000       1.82880000      -0.90000000
H       -0.45770000       1.81690000       0.88350000
H       -3.02400000       0.51650000      -1.02480000
H       -2.34540000      -0.85150000      -1.98810000
H       -1.37320000      -2.68080000      -0.82170000
H       -1.89560000      -3.55480000       1.59400000
H       -0.29580000      -2.79400000       1.63790000
H       -2.80290000      -1.74410000       2.88380000
H       -1.20970000      -0.97160000       2.93410000
H       -2.91360000       0.38860000       1.35910000
