16
Properties=species:S:1:pos:R:3 gdb_64693=T pbc="F F F"
O       -0.12770000       1.45940000      -0.16230000
C        0.00160000       0.08100000      -0.05370000
C        1.10360000      -0.51560000      -0.92610000
C        2.40390000       0.04360000      -0.56790000
C        3.44200000       0.55430000      -0.24140000
C       -0.35430000      -0.56080000       1.25480000
C       -1.30830000      -0.66950000       0.05980000
C       -2.55330000       0.04520000       0.07150000
N       -3.57120000       0.59380000       0.07490000
H        0.70560000       1.85160000       0.12840000
H        1.11870000      -1.60670000      -0.82280000
H        0.88070000      -0.29270000      -1.97660000
H        4.37620000       0.98030000       0.03140000
H        0.14940000      -1.46880000       1.56630000
H       -0.66140000       0.10440000       2.05250000
H       -1.36090000      -1.63320000      -0.43650000
