16
Properties=species:S:1:pos:R:3 gdb_11493=T pbc="F F F"
N       -0.17700000       1.21340000      -0.61480000
C       -0.10010000       0.05010000      -0.09260000
N       -1.19470000      -0.66860000       0.31740000
C       -2.49850000      -0.07790000       0.35090000
C       -3.35510000      -0.14490000      -0.88490000
C       -3.68420000      -1.00050000       0.31470000
C        1.21220000      -0.68020000       0.09980000
O        2.27150000      -0.20700000      -0.21540000
H        0.76850000       1.50770000      -0.86900000
H       -1.02310000      -1.42630000       0.96100000
H       -2.57160000       0.83060000       0.94470000
H       -3.98410000       0.70890000      -1.10710000
H       -2.92930000      -0.63700000      -1.75070000
H       -3.48790000      -2.06490000       0.23790000
H       -4.54440000      -0.74520000       0.92260000
H        1.14370000      -1.69540000       0.55450000
