19
Properties=species:S:1:pos:R:3 gdb_84429=T pbc="F F F"
C       -0.03070000       1.55150000       0.08590000
C       -0.04190000       0.04380000       0.06330000
C        1.23500000      -0.73490000      -0.29350000
C        0.68610000      -0.82570000       1.08930000
O        1.44580000      -0.30510000       2.12720000
C       -0.23820000      -1.99860000       1.44640000
O       -0.65000000      -1.89760000       2.82020000
C       -1.38540000      -1.85270000       0.47630000
C       -1.28770000      -0.72240000      -0.23480000
H        0.88970000       1.91350000       0.55330000
H       -0.09170000       1.97720000      -0.92220000
H       -0.87240000       1.94610000       0.66630000
H        1.15920000      -1.58030000      -0.97050000
H        2.14420000      -0.14820000      -0.38850000
H        0.94810000      -0.52090000       2.92960000
H        0.27540000      -2.96320000       1.37310000
H       -1.40460000      -1.29710000       2.83910000
H       -2.17500000      -2.59090000       0.39970000
H       -2.00450000      -0.39780000      -0.98340000
