18
Properties=species:S:1:pos:R:3 gdb_108780=T pbc="F F F"
O        0.79270000      -0.19890000       0.61970000
C       -0.15320000       0.42740000      -0.23290000
C       -1.54060000      -0.18260000      -0.13590000
C       -2.65720000       0.48400000      -0.54190000
C       -3.98130000      -0.09570000      -0.39990000
O       -5.01230000       0.44920000      -0.75690000
C       -4.01460000      -1.44500000       0.33720000
C       -2.75070000      -2.26970000       0.09420000
N       -1.57290000      -1.45170000       0.35060000
H        0.57400000       0.03390000       1.52850000
H       -0.21350000       1.50930000      -0.06230000
H        0.22790000       0.27900000      -1.25000000
H       -2.58110000       1.49530000      -0.92420000
H       -4.11550000      -1.22610000       1.40890000
H       -4.90660000      -1.99440000       0.02890000
H       -2.71970000      -3.15020000       0.74230000
H       -2.74090000      -2.62220000      -0.95040000
H       -0.67420000      -1.89760000       0.45910000
