18
Properties=species:S:1:pos:R:3 gdb_120420=T pbc="F F F"
N        0.17510000       1.49870000       0.21720000
C        0.07880000       0.07430000       0.01680000
C       -1.29030000      -0.63090000       0.22630000
C       -2.52600000       0.23470000       0.34970000
C       -3.82350000      -0.58060000       0.32070000
O       -4.97490000       0.22730000       0.49400000
O       -1.16990000      -1.24050000      -1.11160000
C       -0.02030000      -0.54490000      -1.39610000
O        0.56870000      -0.49960000      -2.42820000
H        1.14410000       1.79540000       0.20520000
H       -0.29870000       2.01190000      -0.51850000
H        0.86990000      -0.41870000       0.58840000
H       -1.28180000      -1.42530000       0.97880000
H       -2.46770000       0.79870000       1.28700000
H       -2.54040000       0.97040000      -0.46560000
H       -3.87340000      -1.16750000      -0.60770000
H       -3.83110000      -1.29210000       1.15420000
H       -5.08210000       0.76470000      -0.29700000
