19
Properties=species:S:1:pos:R:3 gdb_85178=T pbc="F F F"
C        0.05750000       1.71080000       0.07800000
C        0.17150000       0.21600000      -0.11000000
O        1.49400000      -0.18560000      -0.62660000
C        1.76860000      -0.92960000       0.49540000
N        2.80280000      -1.56050000       0.82900000
C        0.40540000      -0.68190000       1.13900000
N        0.25680000      -0.07950000       2.44390000
C        0.92010000      -0.74050000       3.56900000
C        1.40000000       0.57940000       3.07810000
H        0.86770000       2.09590000       0.70090000
H        0.09120000       2.21830000      -0.89050000
H       -0.89290000       1.94900000       0.56460000
H       -0.60150000      -0.16020000      -0.78650000
H        3.53490000      -1.48040000       0.12000000
H       -0.21220000      -1.58480000       1.11560000
H        0.33000000      -0.81090000       4.47840000
H        1.55490000      -1.59510000       3.34960000
H        2.35330000       0.58660000       2.55670000
H        1.15870000       1.48940000       3.61970000
