15
Properties=species:S:1:pos:R:3 gdb_5512=T pbc="F F F"
C       -0.02790000       1.43900000       0.03380000
N       -0.00840000      -0.01320000       0.01540000
C       -0.02660000      -0.77210000      -1.11310000
C        0.00010000      -2.11240000      -0.75960000
C        0.03610000      -2.16440000       0.64300000
C        0.03080000      -0.85620000       1.11830000
C        0.05900000      -0.38940000       2.48910000
O        0.09330000      -1.11740000       3.46160000
H        0.86700000       1.84080000       0.51780000
H       -0.05600000       1.79910000      -0.99570000
H       -0.91070000       1.81660000       0.55790000
H       -0.05730000      -0.30350000      -2.08510000
H       -0.00610000      -2.94410000      -1.44670000
H        0.06380000      -3.03750000       1.27590000
H        0.04720000       0.71720000       2.61420000
