19
Properties=species:S:1:pos:R:3 gdb_70697=T pbc="F F F"
C        0.05830000       1.51930000      -0.02140000
C        0.07310000       0.00990000      -0.00150000
N       -0.79420000      -0.71180000       0.97050000
C        0.66360000      -0.73840000       1.14560000
C        1.32860000      -2.07300000       0.89010000
C        0.61740000      -2.81810000      -0.24440000
N        0.45690000      -1.95180000      -1.40360000
C        0.12220000      -0.62900000      -1.37390000
O       -0.08460000       0.01520000      -2.38860000
H        0.94220000       1.91260000      -0.53160000
H       -0.81670000       1.88670000      -0.56380000
H        0.04090000       1.91710000       0.99860000
H       -1.21760000      -0.03260000       1.59860000
H        1.09220000      -0.13480000       1.94340000
H        2.37950000      -1.90220000       0.62730000
H        1.31030000      -2.69300000       1.79360000
H        1.20660000      -3.68860000      -0.54710000
H       -0.35470000      -3.17620000       0.11370000
H        0.41050000      -2.36740000      -2.32180000
