14
Properties=species:S:1:pos:R:3 gdb_12426=T pbc="F F F"
O        0.00290000      -0.06650000       0.00360000
C       -0.01350000       1.14600000       0.00960000
N       -1.16920000       1.84840000      -0.31240000
C       -1.55350000       3.13740000       0.09590000
C       -0.76630000       4.21740000       0.17120000
C        0.65560000       4.23820000      -0.12150000
C        1.47190000       3.17930000      -0.05680000
N        1.12280000       1.87630000       0.33840000
H       -1.92160000       1.19540000      -0.47010000
H       -2.60980000       3.21130000       0.33330000
H       -1.23420000       5.14850000       0.47280000
H        1.09800000       5.18460000      -0.41360000
H        2.52580000       3.28420000      -0.29340000
H        1.89270000       1.24250000       0.49000000
