13
Properties=species:S:1:pos:R:3 gdb_1417=T pbc="F F F"
C        0.03160000       1.83830000      -0.06120000
C       -0.07840000       0.33230000       0.16700000
O       -1.48670000       0.04110000       0.33370000
C       -1.80360000      -1.10070000       0.97850000
O       -2.93250000      -1.44760000       1.14890000
C        0.48350000      -0.44880000      -0.93360000
C        0.94950000      -1.08900000      -1.83680000
H        1.08050000       2.12220000      -0.17340000
H       -0.50900000       2.12060000      -0.96710000
H       -0.39740000       2.37180000       0.79010000
H        0.44240000       0.06600000       1.09710000
H       -0.91650000      -1.66040000       1.33240000
H        1.35800000      -1.65940000      -2.63470000
