16
Properties=species:S:1:pos:R:3 gdb_19413=T pbc="F F F"
O        0.15320000       1.37840000      -0.07100000
C        0.03140000      -0.01460000      -0.04280000
C        0.30430000      -0.71090000       1.30990000
O       -0.66850000      -0.17600000       2.22120000
C       -1.06300000      -1.25660000       1.34800000
C       -1.40240000      -0.62970000       0.01620000
C       -2.68000000       0.00850000      -0.42900000
C       -2.16210000      -1.22960000      -1.12740000
H       -0.29320000       1.69630000       0.72500000
H        0.62900000      -0.41410000      -0.86680000
H        1.23370000      -1.07700000       1.73030000
H       -1.44360000      -2.15690000       1.81540000
H       -3.55650000      -0.08390000       0.20370000
H       -2.59260000       0.95840000      -0.94670000
H       -1.74710000      -1.12430000      -2.12490000
H       -2.68620000      -2.16560000      -0.96050000
