18
Properties=species:S:1:pos:R:3 gdb_81947=T pbc="F F F"
C        0.23700000       1.63100000       0.04190000
C        0.10080000       0.11040000       0.00560000
C        0.76620000      -0.59470000      -1.16450000
N        2.23950000      -0.61840000      -1.02720000
C        1.45230000      -1.83090000      -0.70640000
C        1.28710000      -1.97840000       0.79250000
O        2.42730000      -2.38710000       1.50040000
C        0.76140000      -0.57790000       1.21260000
O        0.91180000      -0.09490000       2.30210000
H        1.28540000       1.91590000      -0.08220000
H       -0.34820000       2.10060000      -0.75430000
H       -0.10790000       2.01540000       1.00500000
H       -0.96400000      -0.16980000       0.02370000
H        0.33420000      -0.52910000      -2.15770000
H        2.67410000      -0.71980000      -1.94010000
H        1.54400000      -2.70840000      -1.33690000
H        0.50510000      -2.71850000       1.01180000
H        3.07850000      -1.68050000       1.41470000
