20
Properties=species:S:1:pos:R:3 gdb_56671=T pbc="F F F"
C        0.63620000      -0.01090000      -1.52130000
C        0.05470000       0.06660000      -0.09580000
C        0.05220000       1.45360000       0.38200000
N        0.05730000       2.55580000       0.72960000
C       -1.35870000      -0.55720000       0.03590000
C       -2.42100000       0.15960000      -0.78410000
C       -1.36540000      -2.10750000      -0.04440000
C       -1.78840000      -2.04420000       1.43530000
O       -1.73230000      -0.60260000       1.43810000
H        1.67480000       0.32730000      -1.52880000
H        0.60860000      -1.04260000      -1.88340000
H        0.07270000       0.61650000      -2.21530000
H        0.70380000      -0.49980000       0.58260000
H       -2.21000000       0.09590000      -1.85640000
H       -3.39700000      -0.29670000      -0.60020000
H       -2.47770000       1.21470000      -0.50120000
H       -2.10020000      -2.52830000      -0.73210000
H       -0.39440000      -2.57000000      -0.23170000
H       -2.79670000      -2.41300000       1.65630000
H       -1.08710000      -2.48290000       2.15440000
