18
Properties=species:S:1:pos:R:3 gdb_14061=T pbc="F F F"
C       -0.04400000       1.55630000      -0.05560000
C        0.04500000       0.04640000      -0.01910000
C        1.38790000      -0.65970000      -0.11700000
O        2.57220000       0.08520000      -0.11650000
C        0.63660000      -0.66230000       1.17100000
C        1.11570000      -0.08370000       2.49740000
O        0.62150000      -1.24760000       3.20220000
C        0.11650000      -1.83960000       1.98620000
H        0.86630000       2.01150000       0.34320000
H       -0.17760000       1.91800000      -1.08120000
H       -0.89170000       1.91940000       0.53500000
H       -0.77930000      -0.47420000      -0.50370000
H        1.43170000      -1.59200000      -0.68260000
H        2.68990000       0.46620000      -0.99330000
H        2.20070000       0.03410000       2.59500000
H        0.61880000       0.83660000       2.83160000
H       -0.97580000      -1.95760000       2.00970000
H        0.57820000      -2.81410000       1.77690000
