19
Properties=species:S:1:pos:R:3 gdb_42098=T pbc="F F F"
C       -0.00160000       1.40770000      -0.12920000
C        1.40340000       1.93200000       0.18250000
C        2.15980000       0.64380000       0.60390000
C        1.22980000      -0.49060000       0.10940000
O        0.21430000       0.11000000      -0.67270000
O        3.44530000       0.52630000       0.03040000
C        4.35700000       1.06110000       0.97750000
C        3.73560000       0.62560000       2.30660000
O        2.34220000       0.58170000       2.01820000
H       -0.61170000       1.35080000       0.78720000
H       -0.54500000       1.99650000      -0.87180000
H        1.87060000       2.32690000      -0.72360000
H        1.42690000       2.68920000       0.96740000
H        1.77080000      -1.21160000      -0.50650000
H        0.81290000      -0.99680000       0.99210000
H        5.34490000       0.63700000       0.78630000
H        4.41410000       2.15700000       0.89980000
H        4.08950000      -0.36890000       2.61000000
H        3.91880000       1.33100000       3.12300000
