15
Properties=species:S:1:pos:R:3 gdb_3588=T pbc="F F F"
C       -0.01930000       1.53490000      -0.04330000
C        1.44210000       1.97970000       0.06050000
N        2.08210000       1.71560000       1.36230000
C        2.30590000       0.77880000       0.24180000
C        1.41360000      -0.44580000       0.24480000
N        0.45590000      -0.51620000       1.36790000
C        0.00530000       0.00790000       0.06540000
H       -0.64330000       1.99150000       0.73070000
H       -0.42020000       1.82470000      -1.02090000
H        1.76890000       2.84230000      -0.51310000
H        2.89940000       2.31560000       1.45350000
H        3.29410000       0.70210000      -0.19890000
H        1.78830000      -1.36440000      -0.19370000
H        0.13550000      -1.47770000       1.46290000
H       -0.71700000      -0.56930000      -0.50460000
