20
Properties=species:S:1:pos:R:3 gdb_18643=T pbc="F F F"
C       -0.08180000       1.57110000      -0.03850000
C        0.00330000       0.04230000       0.00200000
C        0.68270000      -0.58230000      -1.24290000
C        1.31820000      -1.90790000      -0.76220000
C        1.56340000      -1.73640000       0.73330000
C        2.26850000      -0.48930000       1.21190000
O        2.95660000       0.37220000       0.34460000
C        0.76790000      -0.52230000       1.19860000
H        0.91920000       2.00830000      -0.08920000
H       -0.65080000       1.91000000      -0.91150000
H       -0.58030000       1.96530000       0.85380000
H       -1.01790000      -0.35810000       0.07530000
H       -0.02920000      -0.73830000      -2.05910000
H        1.45960000       0.09290000      -1.60570000
H        0.62630000      -2.74600000      -0.90600000
H        2.22850000      -2.15440000      -1.32150000
H        1.65100000      -2.63050000       1.34270000
H        2.72150000      -0.56250000       2.20160000
H        3.76300000      -0.07300000       0.06370000
H        0.26610000      -0.50790000       2.16130000
