18
Properties=species:S:1:pos:R:3 gdb_54781=T pbc="F F F"
C       -0.04770000       1.47410000      -0.11970000
C        0.01460000      -0.04430000      -0.03930000
O        1.00640000      -0.68100000      -0.34930000
N       -1.10640000      -0.64660000       0.47630000
C       -2.55870000      -0.34930000       0.16470000
C       -2.44070000      -1.43530000      -0.95830000
C       -1.51120000      -2.05880000       0.14140000
C       -2.53370000      -2.30720000       1.26150000
C       -3.23110000      -1.16840000       1.27920000
H        0.97070000       1.86340000      -0.10420000
H       -0.51430000       1.77770000      -1.06400000
H       -0.62570000       1.90890000       0.69950000
H       -2.85570000       0.68190000      -0.01430000
H       -3.34530000      -1.98150000      -1.23430000
H       -1.88590000      -1.09150000      -1.83590000
H       -0.71560000      -2.76660000      -0.07020000
H       -2.61950000      -3.19640000       1.86770000
H       -4.05380000      -0.85140000       1.90250000
