14
Properties=species:S:1:pos:R:3 gdb_8830=T pbc="F F F"
C        0.10340000       1.33760000       0.15030000
O        0.22130000      -0.08980000       0.01200000
C        0.58250000      -0.52910000      -1.19510000
O        0.78390000       0.15770000      -2.16070000
C        0.67110000      -2.07800000      -1.21900000
N        1.02160000      -2.63750000      -2.51300000
C        1.61270000      -2.53840000      -0.18850000
N        2.36970000      -2.88600000       0.61120000
H        1.05900000       1.81910000      -0.06840000
H       -0.65700000       1.72350000      -0.53250000
H       -0.18540000       1.50890000       1.18630000
H       -0.32260000      -2.44650000      -0.93180000
H        0.35410000      -2.29690000      -3.19950000
H        1.92280000      -2.26730000      -2.80320000
