17
Properties=species:S:1:pos:R:3 gdb_103118=T pbc="F F F"
O       -0.08280000       1.47330000      -0.16150000
C       -0.00430000       0.09850000       0.21540000
C       -1.37840000      -0.51590000       0.09770000
O       -2.34860000       0.13800000       0.85780000
C       -1.81340000      -1.10870000      -1.21770000
O       -0.90350000      -1.14920000      -2.27130000
C       -1.58760000      -2.01710000       0.00170000
C       -0.49220000      -2.93650000      -0.03840000
C        0.41980000      -3.71550000      -0.14920000
H       -0.17730000       1.49380000      -1.12090000
H        0.72780000      -0.44940000      -0.38370000
H        0.31650000       0.08780000       1.26130000
H       -2.18060000       1.08120000       0.72210000
H       -2.85090000      -0.95590000      -1.50830000
H       -0.56780000      -2.05140000      -2.35190000
H       -2.49110000      -2.36790000       0.49140000
H        1.22860000      -4.40200000      -0.19950000
