22
Properties=species:S:1:pos:R:3 gdb_58317=T pbc="F F F"
C        0.08550000       1.54250000       0.06550000
C       -0.02090000       0.01680000       0.05050000
O        0.63210000      -0.53590000       1.19260000
C       -1.47070000      -0.51120000      -0.06890000
C       -2.19500000       0.06570000      -1.29450000
C       -1.46070000      -2.05160000      -0.07990000
C       -2.84240000      -2.67610000       0.20210000
C       -2.80250000      -4.13700000       0.20500000
N       -2.75680000      -5.29170000       0.20200000
H        1.12340000       1.83170000       0.25040000
H       -0.23020000       1.98810000      -0.88090000
H       -0.53670000       1.97070000       0.86240000
H        0.55400000      -0.37090000      -0.80140000
H        0.25130000      -0.12260000       1.97580000
H       -2.00290000      -0.17860000       0.83770000
H       -3.19260000      -0.36720000      -1.41400000
H       -2.32440000       1.14820000      -1.22140000
H       -1.63400000      -0.14580000      -2.21260000
H       -1.09780000      -2.40970000      -1.05100000
H       -0.75230000      -2.40370000       0.67300000
H       -3.21670000      -2.34020000       1.17680000
H       -3.58180000      -2.36020000      -0.54190000
