10
Properties=species:S:1:pos:R:3 gdb_21428=T pbc="F F F"
N       -0.08020000       1.29590000       0.22150000
C       -0.06480000       0.06150000      -0.02830000
O        1.06370000      -0.59410000      -0.48290000
C        1.07920000      -1.93020000      -0.75280000
O        2.05760000      -2.47280000      -1.14190000
O       -0.07770000      -2.62930000      -0.55920000
N       -1.27160000      -2.04230000      -0.09940000
C       -1.23520000      -0.79050000       0.13890000
H        0.82920000       1.72710000       0.04580000
H       -2.15460000      -0.33840000       0.49300000
