21
Properties=species:S:1:pos:R:3 gdb_62884=T pbc="F F F"
C       -0.01220000       1.54860000      -0.04030000
C       -0.07520000       0.02340000      -0.01380000
C       -1.47110000      -0.46330000      -0.39290000
C        1.19390000      -0.71980000      -0.56940000
O        1.97430000      -0.17200000       0.56940000
C        0.70630000      -0.66950000       1.16130000
C        0.89000000      -1.93710000       0.31510000
C        0.21790000      -3.25900000       0.16430000
C        1.68310000      -3.16590000       0.57440000
H        0.98040000       1.90810000       0.22910000
H       -0.26500000       1.92400000      -1.03870000
H       -0.74320000       1.97320000       0.65740000
H       -1.73620000      -0.10150000      -1.39300000
H       -1.56940000      -1.54820000      -0.38950000
H       -2.21330000      -0.05290000       0.30140000
H        1.65100000      -0.67420000      -1.56000000
H        0.58000000      -0.56380000       2.24080000
H       -0.50320000      -3.56490000       0.91630000
H       -0.00950000      -3.61600000      -0.83570000
H        2.43300000      -3.46110000      -0.15230000
H        1.93930000      -3.41000000       1.60030000
