19
Properties=species:S:1:pos:R:3 gdb_90910=T pbc="F F F"
O        0.21040000       1.35390000      -0.20920000
C        0.10240000      -0.03250000       0.02000000
C        0.19540000      -0.44000000       1.56850000
C       -1.34520000      -0.17020000       1.60730000
C       -2.76500000      -0.87360000       1.58330000
C       -2.91510000      -0.09960000       0.17390000
C       -1.37920000      -0.49490000       0.12290000
C       -1.51470000      -2.03160000       0.13040000
C       -2.41960000      -2.27310000       1.07960000
H        1.12140000       1.61280000      -0.03720000
H        0.74620000      -0.60170000      -0.66730000
H        0.47840000      -1.48840000       1.67960000
H        0.82960000       0.18990000       2.19940000
H       -1.48320000       0.90280000       1.76220000
H       -3.50720000      -0.75870000       2.37500000
H       -3.59050000      -0.55370000      -0.55620000
H       -3.10000000       0.97300000       0.27610000
H       -0.99260000      -2.70850000      -0.53250000
H       -2.85430000      -3.20400000       1.41460000
