20
Properties=species:S:1:pos:R:3 gdb_66767=T pbc="F F F"
C        0.02010000       1.55530000       0.01060000
C        0.02230000       0.05250000      -0.03360000
C        0.55110000      -0.90630000      -1.15880000
C        0.85730000      -1.87640000      -0.08540000
C        0.77220000      -0.82910000       1.02870000
C       -0.20860000      -1.17430000       2.15550000
C       -1.58490000      -1.23850000       1.42240000
C       -1.25040000      -0.83140000      -0.01280000
N       -0.49040000      -1.89900000      -0.76620000
H        1.03590000       1.96090000      -0.05470000
H       -0.56160000       1.97880000      -0.81590000
H       -0.42100000       1.91910000       0.94640000
H        0.91490000      -0.77900000      -2.16990000
H        1.42790000      -2.79620000      -0.11850000
H        1.74780000      -0.44670000       1.33640000
H        0.05140000      -2.11690000       2.64670000
H       -0.20620000      -0.39930000       2.92950000
H       -2.02480000      -2.24040000       1.43860000
H       -2.31500000      -0.55600000       1.86910000
H       -2.09190000      -0.49330000      -0.62150000
