17
Properties=species:S:1:pos:R:3 gdb_44535=T pbc="F F F"
N       -0.03260000       1.22490000       0.66160000
C       -0.01170000       0.09450000       0.10480000
C       -1.23860000      -0.76260000      -0.18090000
C       -0.70060000      -1.97680000      -0.93870000
C       -0.68920000      -1.94610000      -2.47960000
N       -0.17730000      -0.61300000      -2.85340000
C        0.78210000      -1.68750000      -2.51510000
C        0.84610000      -1.74810000      -0.97990000
O        1.13910000      -0.54890000      -0.28810000
H        0.91290000       1.60140000       0.74450000
H       -1.70910000      -1.03910000       0.76630000
H       -1.95800000      -0.17730000      -0.75540000
H       -0.99980000      -2.93950000      -0.52510000
H       -1.30710000      -2.52350000      -3.15540000
H       -0.20150000      -0.53810000      -3.86890000
H        1.53800000      -2.00370000      -3.22260000
H        1.47310000      -2.55440000      -0.59490000
