25
Properties=species:S:1:pos:R:3 gdb_59956=T pbc="F F F"
C        0.15210000       1.52790000      -0.03220000
C        0.03490000       0.00060000       0.07280000
C        0.65170000      -0.49730000       1.38790000
C       -1.41920000      -0.49230000      -0.03890000
C       -2.16530000      -0.15160000      -1.34210000
C       -1.47080000      -0.71390000      -2.60080000
C       -3.58560000      -0.72970000      -1.30190000
C       -4.68410000       0.12400000      -1.90960000
O       -3.81410000      -1.81940000      -0.82790000
H        1.19200000       1.84930000       0.08820000
H       -0.19730000       1.90540000      -0.99830000
H       -0.43840000       2.01980000       0.75070000
H        0.61490000      -0.44080000      -0.74880000
H        0.11960000      -0.08110000       2.25180000
H        0.60350000      -1.58850000       1.46310000
H        1.70230000      -0.19950000       1.47080000
H       -1.44830000      -1.58020000       0.08450000
H       -1.98990000      -0.08130000       0.80590000
H       -2.24800000       0.93600000      -1.45500000
H       -2.05720000      -0.51710000      -3.50450000
H       -0.48630000      -0.26110000      -2.74460000
H       -1.34360000      -1.79740000      -2.51190000
H       -4.39750000       0.48340000      -2.90390000
H       -5.61450000      -0.44230000      -1.96850000
H       -4.83910000       1.01370000      -1.28690000
