14
Properties=species:S:1:pos:R:3 gdb_29356=T pbc="F F F"
O        0.02600000       1.33730000      -0.00030000
C        0.03690000      -0.01890000      -0.01980000
C        0.01230000      -0.80540000      -1.13560000
N        0.03620000      -2.13590000      -0.69420000
C        0.07420000      -2.17200000       0.65300000
O        0.10210000      -3.35850000       1.28940000
C        0.07680000      -0.87220000       1.14350000
C        0.11120000      -0.47840000       2.49230000
C        0.14050000      -0.11870000       3.64570000
H        0.04930000       1.61800000       0.92190000
H       -0.01900000      -0.55750000      -2.18100000
H        0.02650000      -2.95180000      -1.28010000
H        0.12720000      -3.18130000       2.23780000
H        0.16640000       0.19290000       4.66000000
