19
Properties=species:S:1:pos:R:3 gdb_85174=T pbc="F F F"
C        0.35290000       1.69440000      -0.12760000
C        0.12820000       0.19080000      -0.12750000
N        1.23320000      -0.62300000      -0.66050000
C        1.51770000      -1.29590000       0.49890000
O        2.35920000      -2.10570000       0.79700000
C        0.33710000      -0.57700000       1.22730000
N        0.54840000       0.21070000       2.41870000
C        1.19040000      -0.46250000       3.54950000
C        1.91210000       0.59450000       2.79150000
H        1.32430000       1.95120000       0.30170000
H        0.31180000       2.09160000      -1.14740000
H       -0.42430000       2.18790000       0.46290000
H       -0.83070000      -0.04810000      -0.60270000
H        1.63020000      -0.69550000      -1.58630000
H       -0.48020000      -1.27810000       1.42310000
H        0.75940000      -0.24780000       4.52350000
H        1.53280000      -1.48340000       3.40120000
H        2.73770000       0.26920000       2.16390000
H        2.00970000       1.59570000       3.20110000
