11
Properties=species:S:1:pos:R:3 gdb_131008=T pbc="F F F"
O       -0.01880000      -0.05930000      -0.00090000
C       -0.01730000       1.13030000       0.00890000
N        1.16480000       1.92310000       0.00250000
C        1.24290000       3.28150000       0.01240000
C        2.58720000       3.54260000       0.00020000
N        3.26670000       2.33490000      -0.01690000
N        2.42240000       1.37130000      -0.01550000
C        3.24750000       4.79700000       0.00320000
N        3.76730000       5.83030000       0.00590000
H       -0.91450000       1.77290000       0.02330000
H        0.37880000       3.92400000       0.02680000
