20
Properties=species:S:1:pos:R:3 gdb_98852=T pbc="F F F"
C       -0.56870000       1.27840000      -0.72340000
O       -0.69830000      -0.14910000      -0.69020000
C       -0.89320000      -0.68460000       0.53230000
O       -0.92290000      -0.04130000       1.55020000
C       -1.08590000      -2.18470000       0.42390000
C       -1.51730000      -2.95120000       1.69020000
C       -2.56180000      -3.64120000       0.77930000
N       -2.36180000      -2.57110000      -0.21950000
C       -2.35750000      -2.90920000      -1.62490000
H       -0.41380000       1.53900000      -1.77040000
H       -1.47410000       1.75570000      -0.34010000
H        0.28180000       1.60170000      -0.11800000
H       -0.20420000      -2.62670000      -0.07010000
H       -0.76770000      -3.58670000       2.16030000
H       -1.95380000      -2.28260000       2.43220000
H       -2.21600000      -4.62640000       0.42560000
H       -3.58860000      -3.73890000       1.14640000
H       -3.36130000      -3.22070000      -1.93270000
H       -2.07800000      -2.02880000      -2.21040000
H       -1.65340000      -3.72750000      -1.87100000
