20
Properties=species:S:1:pos:R:3 gdb_52115=T pbc="F F F"
O        0.00380000       0.44740000       0.94330000
C        0.08260000       1.21610000       0.00800000
N        1.21990000       1.51810000      -0.67250000
C        2.53280000       0.98920000      -0.31780000
C        3.52690000       2.08070000      -0.04470000
C        4.30940000       2.76620000      -1.13770000
C        5.05760000       2.03380000      -0.05670000
C        5.11560000       2.88930000       1.21420000
C        3.55200000       2.95290000       1.22190000
H       -0.79250000       1.76180000      -0.39900000
H        1.16570000       2.20160000      -1.41140000
H        2.37210000       0.36530000       0.56550000
H        2.90470000       0.33800000      -1.12070000
H        4.29370000       2.27040000      -2.10420000
H        4.35050000       3.85240000      -1.19460000
H        5.70850000       1.19860000      -0.28850000
H        5.51020000       2.35070000       2.07820000
H        5.64970000       3.84080000       1.12360000
H        3.09500000       3.94350000       1.13270000
H        3.11920000       2.44830000       2.08880000
