16
Properties=species:S:1:pos:R:3 gdb_64072=T pbc="F F F"
C        0.23850000       1.53830000       0.09930000
C       -0.08300000       0.04090000      -0.04320000
O       -1.46850000      -0.18610000      -0.11820000
C        0.66590000      -0.59840000      -1.22360000
O        1.95610000      -1.00390000      -0.69830000
C        1.89160000      -1.21230000       0.64580000
N        2.79360000      -1.70000000       1.37980000
C        0.54110000      -0.72720000       1.12270000
O        0.00170000      -0.93480000       2.17590000
H        1.31710000       1.72480000       0.08560000
H       -0.22320000       2.07910000      -0.73140000
H       -0.16990000       1.92170000       1.03860000
H       -1.76880000      -0.34800000       0.78800000
H        0.12130000      -1.47710000      -1.58260000
H        0.85730000       0.08280000      -2.05380000
H        3.61700000      -1.95420000       0.82860000
