18
Properties=species:S:1:pos:R:3 gdb_18402=T pbc="F F F"
C       -0.07390000       1.48710000       0.08940000
C        1.28650000       0.81790000       0.02990000
C        2.18700000       0.75630000       1.25460000
C        2.64030000      -0.66960000       1.59300000
O        1.62870000      -1.43790000       2.23160000
C        0.53950000      -1.80080000       1.43590000
O       -0.33700000      -0.73470000       1.14070000
C        0.02200000      -0.00430000       0.00100000
H       -0.37910000       1.88920000       1.04930000
H       -0.43490000       2.03740000      -0.77230000
H        1.81490000       0.88650000      -0.91750000
H        3.07170000       1.38290000       1.08830000
H        1.67550000       1.15870000       2.13480000
H        2.99080000      -1.18610000       0.68380000
H        3.47100000      -0.64400000       2.30530000
H        0.88430000      -2.27180000       0.49850000
H       -0.03670000      -2.51470000       2.02930000
H       -0.25790000      -0.48610000      -0.93580000
