20
Properties=species:S:1:pos:R:3 gdb_105544=T pbc="F F F"
O        0.33670000       1.23950000      -0.04250000
C        0.11570000      -0.14520000       0.12620000
C       -1.37580000      -0.48270000       0.13690000
C       -2.24980000       0.36510000       1.09710000
C       -2.90840000       0.90080000      -0.18470000
O       -2.00810000       0.13500000      -1.02800000
C       -1.59970000      -1.97810000       0.16050000
C       -2.83590000      -2.58090000      -0.38880000
N       -1.55170000      -2.73390000      -1.10080000
H       -0.13520000       1.47590000      -0.85080000
H        0.60870000      -0.73360000      -0.66380000
H        0.56430000      -0.43100000       1.08410000
H       -2.89530000      -0.20650000       1.76460000
H       -1.68720000       1.11150000       1.65760000
H       -3.95160000       0.60540000      -0.34300000
H       -2.80760000       1.97580000      -0.36640000
H       -1.10580000      -2.47950000       0.99250000
H       -3.23160000      -3.49360000       0.04730000
H       -3.57680000      -1.91640000      -0.82260000
H       -1.54430000      -2.06100000      -1.86680000
