20
Properties=species:S:1:pos:R:3 gdb_9272=T pbc="F F F"
C       -0.11270000       1.40490000       0.05190000
O        0.14210000       0.02260000      -0.03280000
C        0.69740000      -0.56200000       1.14080000
C       -0.35200000      -0.74450000       2.24070000
C        1.31000000      -1.89700000       0.71630000
C        2.41140000      -1.73300000      -0.34940000
C        2.99000000      -3.00400000      -0.76570000
C        3.44990000      -4.06580000      -1.09190000
H        0.79040000       1.96850000       0.33500000
H       -0.43460000       1.73340000      -0.93970000
H       -0.90780000       1.64760000       0.77150000
H        1.50090000       0.09620000       1.51790000
H       -1.16580000      -1.38420000       1.88500000
H        0.09610000      -1.21120000       3.12350000
H       -0.77960000       0.21210000       2.55390000
H        1.72170000      -2.39910000       1.59790000
H        0.51720000      -2.54120000       0.32030000
H        1.98600000      -1.21210000      -1.21340000
H        3.20490000      -1.08220000       0.04240000
H        3.86340000      -4.99670000      -1.39070000
