21
Properties=species:S:1:pos:R:3 gdb_30649=T pbc="F F F"
C       -0.20740000       1.58970000       0.37750000
C       -0.20560000       0.05950000       0.31390000
C       -1.50600000      -0.56410000      -0.25320000
C       -1.73940000      -0.18390000      -1.72240000
C       -1.50540000      -2.05650000      -0.08560000
C       -1.42580000      -3.10640000      -0.96770000
N       -1.44580000      -4.31820000      -0.31080000
C       -1.53790000      -4.01520000       0.96100000
N       -1.57540000      -2.66470000       1.15550000
H        0.70650000       1.95870000       0.85310000
H       -0.26360000       2.04260000      -0.61670000
H       -1.05790000       1.96190000       0.96060000
H        0.63990000      -0.29250000      -0.29040000
H       -0.03610000      -0.33680000       1.32290000
H       -2.34400000      -0.15640000       0.33440000
H       -0.90500000      -0.51830000      -2.34830000
H       -2.65380000      -0.64580000      -2.10450000
H       -1.83400000       0.89820000      -1.83990000
H       -1.35760000      -3.05960000      -2.04350000
H       -1.58330000      -4.71630000       1.78130000
H       -1.65760000      -2.19230000       2.04020000
