19
Properties=species:S:1:pos:R:3 gdb_119030=T pbc="F F F"
O       -0.54850000       1.48870000      -0.66850000
C       -0.44380000       0.08180000      -0.82620000
C       -1.55270000      -0.54720000       0.01530000
C       -1.62790000      -2.05840000      -0.11070000
C       -0.45340000      -2.82490000       0.50870000
C       -0.55470000      -4.27630000       0.44100000
C       -0.62590000      -5.47510000       0.40020000
C       -2.93590000      -2.70760000      -0.27380000
O       -2.05710000      -2.52860000      -1.39180000
H        0.10810000       1.90410000      -1.23500000
H       -0.57550000      -0.22080000      -1.87530000
H        0.54550000      -0.27580000      -0.49890000
H       -1.41200000      -0.26350000       1.06510000
H       -2.50280000      -0.11340000      -0.31060000
H        0.47200000      -2.50780000       0.01130000
H       -0.35470000      -2.51200000       1.55680000
H       -0.68590000      -6.53430000       0.35560000
H       -3.06720000      -3.73890000       0.04460000
H       -3.83600000      -2.09450000      -0.28550000
