17
Properties=species:S:1:pos:R:3 gdb_61026=T pbc="F F F"
O       -0.37080000       1.40770000      -0.07590000
C       -0.05460000       0.04800000      -0.02430000
C        0.86010000      -0.31930000      -1.18140000
O        1.20390000       0.50190000      -1.99510000
C        0.58770000      -0.40390000       1.29240000
O        1.89550000       0.17390000       1.53320000
C        1.50790000       0.51180000       2.87390000
C        0.42090000       1.53030000       2.87470000
C        0.07770000       0.06730000       2.65350000
H        0.12410000       1.75840000      -0.83450000
H       -0.96850000      -0.56580000      -0.14360000
H        1.18710000      -1.37670000      -1.23970000
H        0.67200000      -1.50120000       1.26610000
H        2.22110000       0.32060000       3.66630000
H        0.13680000       1.89460000       3.85750000
H        0.34030000       2.24000000       2.06170000
H       -0.59210000      -0.49130000       3.29220000
