17
Properties=species:S:1:pos:R:3 gdb_103042=T pbc="F F F"
O        0.50110000       0.58550000      -0.79970000
C       -0.07610000       0.33150000       0.46370000
C       -1.42130000      -0.40900000       0.32740000
C       -2.26530000       0.43680000      -0.52570000
N       -2.84260000       1.15780000      -1.22220000
C       -1.52180000      -1.95170000       0.11620000
C       -1.11180000      -2.05780000       1.59870000
N       -2.12530000      -0.88990000       1.63400000
C       -2.94720000      -1.80220000       0.69150000
H       -0.04890000       1.22990000      -1.26060000
H        0.65230000      -0.26920000       1.00760000
H       -0.24910000       1.25140000       1.04090000
H       -1.17460000      -2.52500000      -0.74760000
H       -1.46820000      -2.93080000       2.14820000
H       -0.10100000      -1.79910000       1.90830000
H       -3.70030000      -1.27240000       0.10640000
H       -3.37550000      -2.66230000       1.20890000
