19
Properties=species:S:1:pos:R:3 gdb_72243=T pbc="F F F"
C       -0.11790000       1.49900000      -0.01700000
C       -0.01550000       0.00540000       0.02110000
C        0.00400000      -0.95140000      -1.14870000
C        1.27240000      -1.79190000      -1.07810000
O        1.83130000      -1.52040000       0.21300000
C        0.80760000      -0.90100000       0.97780000
C       -0.44440000      -1.82620000       1.15810000
C       -1.04480000      -1.10370000      -0.04690000
O       -2.39440000      -0.93840000      -0.29940000
H        0.83660000       1.95740000      -0.29960000
H       -0.87210000       1.81570000      -0.74410000
H       -0.40860000       1.90640000       0.95780000
H       -0.36900000      -0.60220000      -2.10490000
H        1.07920000      -2.86860000      -1.18680000
H        2.00050000      -1.50000000      -1.84450000
H        1.25380000      -0.47500000       1.87560000
H       -0.26490000      -2.90590000       1.10840000
H       -0.99840000      -1.58540000       2.07000000
H       -2.71650000      -1.71630000      -0.76820000
