21
Properties=species:S:1:pos:R:3 gdb_91686=T pbc="F F F"
C        0.08510000       1.70590000      -0.05940000
C        0.07480000       0.19130000       0.13510000
C        0.82880000      -0.63460000      -0.96690000
C        1.78570000      -1.44460000      -0.06990000
C        0.84910000      -1.86790000       1.09620000
C        0.83800000      -0.33900000       1.37450000
C        2.33070000      -0.31210000       0.87380000
C        3.37250000      -0.71340000       1.87400000
O        4.37880000      -0.07710000       2.07620000
H        1.10210000       2.10700000      -0.11760000
H       -0.42860000       1.98060000      -0.98690000
H       -0.42670000       2.21270000       0.76590000
H       -0.96830000      -0.13900000       0.20310000
H        0.16090000      -1.28050000      -1.54420000
H        1.36660000       0.00920000      -1.66980000
H        2.46260000      -2.14680000      -0.55770000
H       -0.10410000      -2.33640000       0.83250000
H        1.34210000      -2.45810000       1.86870000
H        0.56010000       0.07450000       2.34510000
H        2.67800000       0.60410000       0.39070000
H        3.18170000      -1.64940000       2.44370000
