18
Properties=species:S:1:pos:R:3 gdb_71644=T pbc="F F F"
C       -0.04200000       1.54670000       0.06930000
C        0.01230000       0.04380000      -0.04410000
C       -1.19220000      -0.66890000      -0.66240000
C       -0.59480000      -1.99800000      -1.08000000
C        0.49690000      -2.58960000      -0.26350000
C        1.18500000      -1.50660000       0.59280000
O        0.29020000      -0.59780000       1.24930000
C        1.24850000      -0.68310000      -0.69000000
N        0.79780000      -1.84200000      -1.56160000
H        0.88000000       1.93360000       0.51160000
H       -0.17630000       2.00090000      -0.91780000
H       -0.87840000       1.85360000       0.70590000
H       -2.00180000      -0.76280000       0.06630000
H       -1.56920000      -0.13730000      -1.54410000
H       -1.19140000      -2.68570000      -1.67210000
H        0.64730000      -3.66140000      -0.18300000
H        2.03190000      -1.81650000       1.20550000
H        2.10010000      -0.11640000      -1.05820000
