15
Properties=species:S:1:pos:R:3 gdb_27434=T pbc="F F F"
N        0.03090000       1.39240000       0.13700000
C       -0.02900000       0.01340000       0.05050000
C       -1.23710000      -0.62330000       0.02960000
C       -1.56550000      -2.04140000       0.01260000
O       -2.74120000      -2.39910000       0.01830000
C       -0.50630000      -3.06270000      -0.02860000
C        0.84080000      -2.94600000      -0.03830000
N        1.66380000      -1.84280000      -0.00300000
C        1.28990000      -0.61580000       0.03990000
H        0.86870000       1.84310000      -0.19600000
H       -0.81510000       1.90220000      -0.06360000
H       -2.12960000      -0.00040000       0.03600000
H       -0.91320000      -4.07050000      -0.05720000
H        1.41100000      -3.87220000      -0.07530000
H        2.11160000       0.10760000       0.07640000
