17
Properties=species:S:1:pos:R:3 gdb_60950=T pbc="F F F"
O        0.07520000       1.63020000       0.04290000
C        0.00650000       0.22910000       0.10360000
C        0.67320000      -0.38620000      -1.10920000
O        1.17200000       0.29190000      -1.97530000
C        0.64430000      -0.31450000       1.37270000
C        0.06420000      -0.09280000       2.75890000
C       -1.45010000      -0.24840000       2.72470000
O       -1.33970000      -1.53150000       2.04100000
C        0.08550000      -1.47480000       2.14510000
H        0.52420000       1.83100000      -0.79360000
H       -1.04120000      -0.11530000       0.08060000
H        0.67920000      -1.49370000      -1.15460000
H        1.73160000      -0.27080000       1.38890000
H        0.64290000       0.33800000       3.56380000
H       -1.89450000      -0.38790000       3.71550000
H       -2.03060000       0.48470000       2.15420000
H        0.61120000      -2.39190000       2.38550000
