17
Properties=species:S:1:pos:R:3 gdb_129583=T pbc="F F F"
N        0.71140000       1.34190000       0.73520000
H        1.39840000       1.66020000       1.41290000
H        0.00800000       3.45770000      -0.39240000
H        0.96660000       0.39870000       0.46770000
C       -0.62510000       1.38130000       1.30040000
C       -1.48580000       0.14100000       1.17710000
C       -0.99070000       0.57330000       2.53280000
C       -1.26570000       2.70270000       1.10920000
C       -2.35020000       3.36120000       1.65120000
N       -2.47420000       4.57900000       1.05290000
N       -1.52440000       4.72100000       0.17180000
N       -0.79630000       3.58980000       0.20160000
H       -2.53340000       0.28170000       0.93870000
H       -1.03630000      -0.73590000       0.72120000
H       -0.19310000      -0.00310000       2.98910000
H       -1.70120000       0.99500000       3.23500000
H       -3.03480000       3.04100000       2.41980000
