23
Properties=species:S:1:pos:R:3 gdb_119064=T pbc="F F F"
C       -0.42210000       1.23370000       1.15010000
O       -0.80300000      -0.11830000       1.05050000
C       -0.50640000      -0.67580000      -0.21210000
C       -0.91970000      -2.13980000      -0.27800000
C       -1.10490000      -2.93980000       0.97480000
C       -2.29970000      -2.64360000       0.08390000
C       -3.43670000      -1.75180000       0.53480000
O       -0.25350000      -2.82750000      -1.30720000
C       -0.72290000      -2.54250000      -2.61150000
H       -0.68390000       1.57380000       2.15480000
H        0.66130000       1.36120000       1.00050000
H       -0.94640000       1.86150000       0.41250000
H       -1.00390000      -0.08950000      -1.00410000
H        0.57830000      -0.63190000      -0.40690000
H       -0.70320000      -3.94650000       0.97130000
H       -1.02920000      -2.40500000       1.91410000
H       -2.60740000      -3.48970000      -0.52650000
H       -3.06720000      -0.91120000       1.12450000
H       -3.98960000      -1.34860000      -0.32180000
H       -4.14820000      -2.31520000       1.14920000
H       -0.49110000      -1.51530000      -2.92700000
H       -0.21480000      -3.23370000      -3.28860000
H       -1.80820000      -2.69470000      -2.69470000
