19
Properties=species:S:1:pos:R:3 gdb_88696=T pbc="F F F"
C       -0.01410000       1.57030000      -0.12090000
C        0.01920000       0.06320000       0.01430000
C        1.29360000      -0.71200000      -0.20420000
C        0.68210000      -0.64700000       1.17790000
C        1.37220000       0.09720000       2.26960000
N        0.71090000       0.14090000       3.57610000
C        1.98330000      -0.60000000       3.45230000
C        1.91500000      -2.03310000       3.60700000
N        1.88920000      -3.18380000       3.71740000
H        0.93490000       2.03140000       0.16980000
H       -0.20520000       1.85820000      -1.16020000
H       -0.80370000       2.01100000       0.49760000
H       -0.88740000      -0.42380000      -0.33500000
H        1.26350000      -1.65610000      -0.73600000
H        2.19940000      -0.13700000      -0.37550000
H        0.18250000      -1.54430000       1.52860000
H        1.92000000       0.98530000       1.95990000
H        0.87780000       1.02380000       4.05170000
H        2.88380000      -0.16150000       3.87420000
