18
Properties=species:S:1:pos:R:3 gdb_102332=T pbc="F F F"
C       -0.02790000       1.56560000       0.18330000
C       -0.03350000       0.04680000       0.00690000
C        0.71430000      -0.45500000      -1.26990000
C       -0.00510000       0.02100000      -2.58240000
O       -1.34930000      -0.38330000      -2.63080000
C        2.10870000      -0.01020000      -1.30210000
C        3.23950000       0.39050000      -1.35870000
C        0.66330000      -1.93050000      -1.27960000
N        0.55390000      -3.08040000      -1.32320000
H        0.99070000       1.96310000       0.19590000
H       -0.58580000       2.07230000      -0.60940000
H       -0.50420000       1.82520000       1.13290000
H        0.43090000      -0.43230000       0.87370000
H       -1.05960000      -0.32370000      -0.06380000
H        0.00350000       1.11270000      -2.59750000
H        0.57420000      -0.33670000      -3.44290000
H       -1.37450000      -1.33920000      -2.75750000
H        4.24510000       0.73100000      -1.40090000
