22
Properties=species:S:1:pos:R:3 gdb_86144=T pbc="F F F"
C       -0.84810000       1.21910000      -0.01340000
C        0.08650000       0.01230000      -0.04250000
C        1.24240000       0.14100000      -1.06010000
N        2.26330000      -0.73950000      -0.52630000
C        3.45680000      -1.08900000      -1.25840000
C        2.09460000      -1.04210000       0.80000000
O        2.85930000      -1.70020000       1.47770000
C        0.80880000      -0.35490000       1.27800000
C        1.18830000       0.81960000       2.19440000
H       -0.31960000       2.13590000       0.26520000
H       -1.29960000       1.38260000      -0.99810000
H       -1.66330000       1.07140000       0.70210000
H       -0.49750000      -0.86730000      -0.33930000
H        0.94280000      -0.16940000      -2.06840000
H        1.60830000       1.17820000      -1.13500000
H        4.03510000      -0.19660000      -1.53320000
H        4.06540000      -1.72390000      -0.61200000
H        3.21070000      -1.63370000      -2.17780000
H        0.22790000      -1.07440000       1.86220000
H        1.77140000       1.57970000       1.66290000
H        0.30000000       1.30450000       2.60890000
H        1.79930000       0.45030000       3.02210000
