13
Properties=species:S:1:pos:R:3 gdb_1944=T pbc="F F F"
O        0.48810000      -0.26410000      -0.23170000
C        0.20390000       0.88530000      -0.02130000
C        1.18090000       2.02480000       0.05910000
C        0.84140000       3.26510000      -0.83720000
C        1.05930000       4.14850000       0.40260000
O        1.24990000       5.31510000       0.56550000
C        1.05940000       2.92610000       1.33550000
H       -0.85820000       1.19810000       0.13620000
H        2.19320000       1.65240000      -0.10080000
H        1.47120000       3.45580000      -1.70830000
H       -0.20940000       3.28070000      -1.15250000
H        0.09070000       2.81400000       1.83840000
H        1.85170000       2.86420000       2.08410000
