17
Properties=species:S:1:pos:R:3 gdb_81751=T pbc="F F F"
C       -0.16580000       1.56630000      -0.03120000
C       -0.00080000       0.05510000      -0.01600000
C        0.73100000      -0.61640000      -1.18310000
N        2.12910000      -0.15200000      -1.13930000
C        1.70900000      -1.28140000      -0.25970000
C        2.31850000      -2.56480000      -0.34260000
N        2.80520000      -3.61440000      -0.39180000
C        1.07970000      -0.57790000       0.96580000
O        1.91730000       0.27410000       1.67780000
H        0.77160000       2.06440000      -0.29100000
H       -0.92230000       1.86820000      -0.76280000
H       -0.48140000       1.92810000       0.95170000
H       -0.96100000      -0.44110000       0.15430000
H        0.31220000      -1.01920000      -2.09710000
H        2.63020000      -0.54200000      -1.93620000
H        0.63570000      -1.27620000       1.67660000
H        2.43100000       0.76350000       1.02110000
