19
Properties=species:S:1:pos:R:3 gdb_77369=T pbc="F F F"
C        0.00620000       1.47900000       0.02950000
C        0.00560000      -0.01950000      -0.02620000
C       -0.94340000      -0.88500000       0.81540000
C       -1.07400000      -2.24800000       0.13260000
C        0.42650000      -2.08400000      -0.20890000
O        1.25190000      -3.15300000      -0.51110000
C        0.55220000      -1.01820000       0.97720000
C        0.46690000      -0.88680000      -1.18510000
O       -0.35290000      -0.89300000      -2.33220000
H        0.98590000       1.88760000      -0.24310000
H       -0.73480000       1.89810000      -0.66000000
H       -0.23510000       1.83640000       1.03620000
H       -1.63930000      -0.42290000       1.50370000
H       -1.22960000      -3.04350000       0.87030000
H       -1.76420000      -2.35940000      -0.70870000
H        1.07110000      -3.86660000       0.10970000
H        1.22030000      -0.89150000       1.81640000
H        1.51340000      -0.65760000      -1.43530000
H        0.05240000      -1.47340000      -2.98480000
