18
Properties=species:S:1:pos:R:3 gdb_26323=T pbc="F F F"
C        0.53490000       1.62720000      -0.47020000
C       -0.02630000       0.26800000      -0.02730000
N       -0.02280000      -0.76510000      -1.08030000
H        0.92500000      -0.87840000      -1.43330000
H        0.41190000      -2.45760000       1.16700000
H       -0.58300000      -0.44900000      -1.86750000
C        0.67260000      -0.28810000       1.17900000
C        1.69760000       0.21690000       1.86460000
O        2.11680000      -0.55940000       2.93310000
C        1.31560000      -1.69100000       2.98000000
O        1.46390000      -2.53270000       3.81120000
C        0.31390000      -1.59560000       1.83400000
H        1.59010000       1.54000000      -0.75270000
H       -0.01600000       1.99620000      -1.34060000
H        0.45290000       2.37810000       0.32280000
H       -1.08480000       0.40960000       0.23940000
H        2.25960000       1.12980000       1.73860000
H       -0.70660000      -1.62650000       2.23390000
