18
Properties=species:S:1:pos:R:3 gdb_34113=T pbc="F F F"
C        0.07020000      -1.16190000      -0.07200000
C        0.04220000       0.03920000      -0.01980000
C       -0.01130000       1.47420000       0.03990000
C       -0.40120000       2.25850000       1.32290000
C        0.42930000       3.34210000       0.64530000
C       -0.03530000       3.55370000      -0.85350000
C        1.37780000       3.06020000      -1.21250000
N        1.34420000       2.26280000       0.05930000
C       -0.82430000       2.24540000      -1.04000000
H        0.10240000      -2.22240000      -0.11450000
H       -1.46400000       2.41340000       1.51800000
H        0.11050000       1.87220000       2.20580000
H        0.89850000       4.17310000       1.17180000
H       -0.46800000       4.48130000      -1.23070000
H        1.52100000       2.49370000      -2.13850000
H        2.15980000       3.81920000      -1.11650000
H       -0.72750000       1.82810000      -2.04490000
H       -1.88430000       2.30350000      -0.78230000
