16
Properties=species:S:1:pos:R:3 gdb_126700=T pbc="F F F"
C       -0.04560000       1.56610000      -0.05950000
C        0.09840000       0.04470000      -0.02070000
N        0.75290000      -0.48850000      -1.20880000
C        0.12260000      -0.72040000      -2.42600000
N       -1.10370000      -0.51800000      -2.66310000
O        1.08980000      -1.19750000      -3.26460000
N        2.34960000      -1.26030000      -2.56990000
C        2.05770000      -0.82810000      -1.38870000
O        2.91830000      -0.70520000      -0.37890000
H        0.93310000       2.05310000      -0.10280000
H       -0.63050000       1.86670000      -0.93190000
H       -0.56230000       1.91310000       0.84020000
H        0.68360000      -0.27750000       0.84390000
H       -0.88510000      -0.42990000       0.03030000
H       -1.33910000      -0.77290000      -3.61870000
H        3.78180000      -1.00790000      -0.69200000
