20
Properties=species:S:1:pos:R:3 gdb_80602=T pbc="F F F"
C       -0.08960000       1.54590000      -0.11750000
C        0.03680000       0.02570000      -0.01900000
C        0.92770000      -0.57860000      -1.12440000
N        2.30960000      -0.31200000      -0.55200000
C        1.91710000      -1.32520000       0.51000000
C        0.80320000      -0.55260000       1.24700000
C        1.34510000       0.46330000       2.25250000
C        1.16700000      -2.02300000      -0.64190000
O        1.09730000      -3.12460000      -1.10290000
H        0.89120000       2.02510000      -0.16360000
H       -0.64270000       1.81960000      -1.02240000
H       -0.63430000       1.95920000       0.73650000
H       -0.96360000      -0.41590000      -0.07610000
H        0.73670000      -0.31030000      -2.16260000
H        3.00710000      -0.73280000      -1.16640000
H        2.70710000      -1.79720000       1.09250000
H        0.15710000      -1.26160000       1.77530000
H        2.07310000       1.13320000       1.78900000
H        0.54250000       1.07120000       2.68060000
H        1.84100000      -0.05450000       3.08050000
