20
Properties=species:S:1:pos:R:3 gdb_93242=T pbc="F F F"
C       -0.15470000       1.48500000       0.08190000
C        0.03510000      -0.02100000      -0.00310000
C        0.80890000      -0.44280000      -1.24130000
O        1.09340000      -1.84830000      -1.24540000
C        1.41160000      -2.47150000      -0.07470000
N        2.02170000      -3.57970000      -0.06200000
C        0.88110000      -1.85470000       1.21660000
C        1.73750000      -2.18970000       2.42660000
O        0.77280000      -0.43900000       1.13410000
H        0.81400000       1.99350000       0.09200000
H       -0.73570000       1.85270000      -0.76920000
H       -0.68490000       1.74200000       1.00200000
H       -0.94740000      -0.52500000      -0.00790000
H        0.24460000      -0.25130000      -2.15830000
H        1.75600000       0.11140000      -1.28600000
H        2.24730000      -3.86530000      -1.01760000
H       -0.13190000      -2.27600000       1.35550000
H        2.73680000      -1.76230000       2.31140000
H        1.27770000      -1.77240000       3.32600000
H        1.83380000      -3.27060000       2.52770000
