19
Properties=species:S:1:pos:R:3 gdb_124533=T pbc="F F F"
C       -0.01030000       1.51620000      -0.03830000
C       -0.02150000      -0.02110000       0.03600000
C        0.71600000      -0.52600000       1.28910000
C       -1.42610000      -0.54330000       0.00120000
N       -1.90930000      -1.33570000      -0.95280000
N       -3.16160000      -1.51710000      -0.54650000
C       -4.12450000      -2.32660000      -1.26420000
N       -3.45470000      -0.88690000       0.58300000
N       -2.36250000      -0.26340000       0.94410000
H        1.01850000       1.88950000      -0.02910000
H       -0.49510000       1.87320000      -0.95180000
H       -0.54040000       1.94620000       0.81660000
H        0.47850000      -0.42100000      -0.85270000
H        0.21440000      -0.17760000       2.19670000
H        0.74740000      -1.61930000       1.31800000
H        1.74530000      -0.15420000       1.29990000
H       -3.76400000      -3.35490000      -1.33700000
H       -5.05790000      -2.29360000      -0.70370000
H       -4.27280000      -1.92370000      -2.26840000
