17
Properties=species:S:1:pos:R:3 gdb_4457=T pbc="F F F"
C       -0.11360000       1.50420000       0.11710000
C       -0.01410000       0.02320000      -0.03530000
C        0.02360000      -0.79400000      -1.14150000
C       -0.02900000      -0.37880000      -2.58090000
C        0.12480000      -2.15240000      -0.67840000
C        0.14420000      -2.10220000       0.69080000
O        0.22560000      -3.04780000       1.66390000
N        0.06130000      -0.79980000       1.08460000
H        0.75160000       1.92920000       0.64370000
H       -0.16300000       1.98360000      -0.86280000
H       -1.01100000       1.80770000       0.67300000
H        0.86660000      -0.69820000      -3.12780000
H       -0.89030000      -0.81910000      -3.09850000
H       -0.10550000       0.70680000      -2.68840000
H        0.17570000      -3.04170000      -1.28860000
H        0.27790000      -3.90890000       1.23900000
H        0.05670000      -0.49970000       2.04380000
