15
Properties=species:S:1:pos:R:3 gdb_49342=T pbc="F F F"
N        0.12860000       1.28320000       0.00690000
C        0.01650000       0.02420000       0.00390000
N       -1.22130000      -0.64320000       0.01200000
C       -1.27930000      -2.03810000       0.00890000
N       -0.25930000      -2.78990000      -0.00110000
C       -2.75720000      -2.36940000       0.01980000
O       -3.42110000      -1.11290000       0.02850000
C       -2.51320000      -0.08170000       0.02370000
N       -2.80030000       1.13970000       0.02880000
H        1.11900000       1.52790000      -0.00060000
H        0.82200000      -0.71270000      -0.00510000
H       -0.52600000      -3.77270000      -0.00150000
H       -3.04630000      -2.93910000      -0.87040000
H       -3.03210000      -2.94390000       0.91150000
H       -3.81330000       1.25350000       0.03710000
