23
Properties=species:S:1:pos:R:3 gdb_100064=T pbc="F F F"
C       -0.16950000       1.21610000       0.20600000
O        0.18170000      -0.13970000       0.05920000
C        0.74520000      -0.56200000      -1.18840000
C       -0.14980000      -0.18570000      -2.37750000
C        2.16960000      -0.00940000      -1.35610000
C        0.81060000      -2.09400000      -1.08410000
C        1.25860000      -2.70440000       0.26350000
C       -0.18140000      -3.24780000       0.32770000
O       -0.49490000      -2.70030000      -0.97070000
H        0.67470000       1.89890000       0.03180000
H       -0.99630000       1.51300000      -0.45350000
H       -0.49770000       1.33870000       1.24170000
H       -0.20180000       0.89770000      -2.51770000
H        0.25050000      -0.61720000      -3.30020000
H       -1.15700000      -0.57850000      -2.22290000
H        2.79210000      -0.27790000      -0.49740000
H        2.63620000      -0.40990000      -2.26140000
H        2.16570000       1.08030000      -1.44740000
H        1.34110000      -2.47580000      -1.96710000
H        2.03750000      -3.46410000       0.18440000
H        1.51850000      -1.97810000       1.03200000
H       -0.28550000      -4.33940000       0.34260000
H       -0.81080000      -2.81250000       1.11190000
