16
Properties=species:S:1:pos:R:3 gdb_45105=T pbc="F F F"
O        0.03070000      -0.06160000      -0.17200000
C        0.00980000       1.15150000      -0.07590000
N       -1.15150000       1.85710000       0.08770000
C       -1.33380000       3.27710000       0.04460000
C       -0.93730000       4.17010000       1.19460000
C       -0.10330000       4.13810000      -0.06980000
C        1.22550000       3.44130000      -0.06230000
O        1.56030000       2.69970000       1.10390000
C        1.27720000       1.96590000      -0.10200000
H       -1.97210000       1.27550000       0.17930000
H       -2.20340000       3.57070000      -0.53590000
H       -1.53850000       5.05040000       1.39100000
H       -0.50070000       3.68870000       2.06110000
H       -0.15930000       4.98860000      -0.74000000
H        2.05650000       3.99450000      -0.49730000
H        2.12420000       1.43520000      -0.52800000
