17
Properties=species:S:1:pos:R:3 gdb_8782=T pbc="F F F"
C        0.03680000       1.39570000       0.25210000
N       -0.00780000      -0.05040000       0.21520000
C       -1.11630000      -0.63010000      -0.02080000
N       -2.36400000      -0.03040000      -0.16090000
N       -1.12660000      -2.03590000      -0.13100000
C        0.15400000      -2.71410000      -0.32990000
C       -2.24850000      -2.79950000       0.12420000
O       -2.28270000      -4.00860000       0.07050000
H        1.07830000       1.72420000       0.20320000
H       -0.49540000       1.87640000      -0.58740000
H       -0.38600000       1.79820000       1.18460000
H       -2.33380000       0.97730000      -0.18790000
H       -2.96830000      -0.41690000      -0.87140000
H        0.78890000      -2.60350000       0.55200000
H       -0.06410000      -3.76550000      -0.50890000
H        0.67480000      -2.27460000      -1.18200000
H       -3.12340000      -2.18930000       0.39740000
