25
Properties=species:S:1:pos:R:3 gdb_108671=T pbc="F F F"
C        0.06520000       1.61320000       0.11920000
C        0.03220000       0.07390000       0.11750000
C       -1.36680000      -0.49390000      -0.01710000
C       -1.92630000      -0.85260000      -1.18350000
C       -1.25960000      -0.71110000      -2.52930000
C       -3.32330000      -1.43830000      -1.26580000
C       -3.89140000      -1.88940000       0.08280000
C       -3.61690000      -0.82900000       1.14990000
C       -2.10820000      -0.61840000       1.30160000
H        1.08090000       1.98570000       0.28850000
H       -0.28840000       2.01210000      -0.83680000
H       -0.57610000       2.02530000       0.90540000
H        0.68850000      -0.29870000      -0.67420000
H        0.46430000      -0.28790000       1.06020000
H       -1.09280000      -1.69390000      -2.99070000
H       -1.90980000      -0.15730000      -3.21970000
H       -0.30220000      -0.19020000      -2.49200000
H       -3.99390000      -0.69320000      -1.72270000
H       -3.31450000      -2.28090000      -1.97100000
H       -4.96450000      -2.09100000      -0.00690000
H       -3.41700000      -2.83300000       0.38280000
H       -4.09030000       0.11570000       0.85140000
H       -4.05830000      -1.11350000       2.11150000
H       -1.67190000      -1.45240000       1.87410000
H       -1.91330000       0.27520000       1.90960000
