20
Properties=species:S:1:pos:R:3 gdb_73541=T pbc="F F F"
C       -0.11260000       1.53770000      -0.14370000
C       -0.00880000       0.02820000       0.02300000
C       -1.40010000      -0.58430000       0.26430000
O       -1.40810000      -0.97770000       1.66370000
C       -0.13290000      -0.76900000       2.31520000
C        0.78530000      -0.68990000       1.12630000
C        2.05770000      -0.14120000       0.43760000
N        1.20180000      -0.62390000      -0.77150000
C        0.95130000      -1.85110000       0.11380000
H        0.84560000       2.04400000      -0.26060000
H       -0.70240000       1.75400000      -1.04140000
H       -0.63780000       1.98860000       0.70580000
H       -2.18870000       0.16070000       0.11740000
H       -1.64640000      -1.45600000      -0.34940000
H       -0.14490000       0.15740000       2.90740000
H        0.03560000      -1.61710000       2.98550000
H        2.26170000       0.92700000       0.46420000
H        2.97940000      -0.71720000       0.54510000
H        1.83580000      -2.48300000       0.22630000
H        0.08990000      -2.45000000      -0.17500000
