17
Properties=species:S:1:pos:R:3 gdb_37674=T pbc="F F F"
C       -0.05200000       1.45570000      -0.02920000
C        1.40770000       1.90190000      -0.02150000
C        2.14960000       1.57300000      -1.31020000
C        2.02590000       0.11330000      -1.56390000
C        0.98750000      -0.68060000      -0.80420000
C        1.24730000      -0.43440000       0.64380000
C        2.23280000       0.73290000       0.61810000
N        3.09500000       0.60940000      -0.64980000
N       -0.03240000      -0.01600000       0.03510000
H       -0.59770000       1.81190000       0.85110000
H       -0.59110000       1.78730000      -0.92360000
H        1.60320000       2.89770000       0.37490000
H        2.47700000       2.28060000      -2.06610000
H        2.38500000      -0.28170000      -2.50760000
H        0.68350000      -1.64320000      -1.20160000
H        1.23190000      -1.18520000       1.42580000
H        2.81620000       0.91190000       1.51800000
