19
Properties=species:S:1:pos:R:3 gdb_65967=T pbc="F F F"
C       -0.23540000       1.65420000       0.10420000
C        0.07480000       0.17130000      -0.01590000
N        1.32610000      -0.15980000      -0.75170000
C        1.77750000      -1.11540000       0.29870000
C        0.68490000      -0.56690000       1.21160000
C        0.74190000      -0.08660000       2.60520000
N        0.00040000      -1.31630000       2.25290000
C       -1.12690000      -0.62760000      -0.49910000
O       -2.27480000      -0.27860000      -0.39160000
H        0.62320000       2.18430000       0.52100000
H       -0.45950000       2.07800000      -0.87980000
H       -1.11240000       1.81400000       0.73750000
H        1.18120000      -0.57210000      -1.66890000
H        1.62630000      -2.17660000       0.06380000
H        2.81650000      -0.96570000       0.61080000
H        1.64070000      -0.24950000       3.19470000
H        0.18190000       0.80770000       2.86550000
H       -1.00090000      -1.13100000       2.23200000
H       -0.86240000      -1.60920000      -0.96090000
