17
Properties=species:S:1:pos:R:3 gdb_25654=T pbc="F F F"
C       -0.11160000       1.44960000       0.01380000
C       -0.02140000      -0.00190000       0.00350000
C        0.06540000      -1.20760000      -0.00470000
C        0.15140000      -2.61130000      -0.01830000
C        1.23810000      -3.46780000      -0.00450000
C        0.75150000      -4.80030000      -0.01450000
C       -0.62860000      -4.73370000      -0.04640000
N       -1.61720000      -5.72680000      -0.14190000
N       -0.98500000      -3.41540000      -0.04730000
H        0.88680000       1.90120000       0.02490000
H       -0.63370000       1.83080000      -0.87200000
H       -0.64690000       1.81710000       0.89750000
H        2.26950000      -3.15390000       0.03110000
H        1.33630000      -5.70710000       0.01550000
H       -1.19650000      -6.64240000      -0.23670000
H       -2.23390000      -5.74520000       0.66500000
H       -1.92260000      -3.07190000      -0.16550000
