16
Properties=species:S:1:pos:R:3 gdb_133068=T pbc="F F F"
C       -0.01210000       1.53350000      -0.11460000
C       -0.02710000       0.00870000       0.09160000
C       -1.42830000      -0.54040000       0.08380000
N       -1.97350000      -0.88970000       1.25210000
C       -3.22880000      -1.35140000       1.20980000
C       -3.95200000      -1.47260000       0.03430000
C       -3.26850000      -1.07130000      -1.10860000
F       -3.87610000      -1.14840000      -2.28370000
N       -2.04070000      -0.61410000      -1.11200000
H        1.01550000       1.90740000      -0.13090000
H       -0.49000000       1.79760000      -1.06200000
H       -0.54640000       2.04260000       0.69360000
H        0.53760000      -0.47040000      -0.71480000
H        0.43820000      -0.25120000       1.04500000
H       -3.67080000      -1.63700000       2.16130000
H       -4.96550000      -1.84810000      -0.00470000
