18
Properties=species:S:1:pos:R:3 gdb_124835=T pbc="F F F"
C        0.17580000       1.47210000       0.02080000
C        0.05490000      -0.02960000       0.27090000
O        0.20350000      -0.34700000       1.65230000
C       -1.26700000      -0.58190000      -0.28210000
N       -1.33900000      -2.03250000      -0.25250000
C       -1.26660000      -2.89280000       0.78650000
N       -1.39020000      -4.13910000       0.36570000
C       -1.53940000      -3.98180000      -0.97720000
N       -1.51710000      -2.73050000      -1.40560000
H        1.10310000       1.84850000       0.45950000
H        0.17990000       1.69910000      -1.04950000
H       -0.66360000       2.01460000       0.47460000
H        0.87800000      -0.55500000      -0.22570000
H       -0.36930000       0.24390000       2.15490000
H       -2.10500000      -0.15870000       0.28730000
H       -1.39530000      -0.30140000      -1.32890000
H       -1.10380000      -2.56310000       1.79930000
H       -1.66910000      -4.80950000      -1.65870000
