17
Properties=species:S:1:pos:R:3 gdb_4902=T pbc="F F F"
C       -0.19230000       1.51430000       0.14680000
C       -0.03320000       0.04350000      -0.05670000
C       -0.20110000      -0.74020000      -1.17700000
C        0.08620000      -2.09330000      -0.82470000
C        0.02780000      -3.30090000      -1.71370000
O        0.91730000      -4.33360000      -1.30450000
C        0.42750000      -2.09200000       0.50960000
N        0.35120000      -0.79650000       0.96190000
H        0.74080000       1.99300000       0.47040000
H       -0.49650000       1.98730000      -0.78960000
H       -0.95630000       1.74910000       0.89880000
H       -0.49880000      -0.38050000      -2.15140000
H       -0.96750000      -3.76240000      -1.69580000
H        0.21350000      -3.00070000      -2.75800000
H        1.78410000      -3.92550000      -1.20320000
H        0.70830000      -2.90270000       1.16160000
H        0.56590000      -0.50040000       1.89830000
