14
Properties=species:S:1:pos:R:3 gdb_31909=T pbc="F F F"
C       -0.04830000       1.30000000       0.07880000
O        0.04240000      -0.12600000      -0.05420000
C        0.65560000      -0.54560000      -1.14340000
N        1.18600000       0.14740000      -2.10710000
C        1.67540000      -0.82590000      -2.96330000
C        1.41310000      -2.06580000      -2.46790000
O        0.73690000      -1.87780000      -1.26130000
C        1.67050000      -3.37150000      -2.90150000
C        1.89920000      -4.48970000      -3.28790000
H        0.94990000       1.74410000       0.10840000
H       -0.60460000       1.72610000      -0.75990000
H       -0.57440000       1.47140000       1.01720000
H        2.18460000      -0.57560000      -3.88010000
H        2.10090000      -5.47480000      -3.62850000
