18
Properties=species:S:1:pos:R:3 gdb_30590=T pbc="F F F"
C       -0.02240000       1.59950000       0.00900000
C        0.01510000       0.07310000       0.02140000
C        0.73710000      -0.49690000       1.23520000
O        1.22870000       0.22170000       2.09440000
C        0.83150000      -1.94900000       1.35200000
C        0.39590000      -3.01770000       0.57710000
C        0.79770000      -4.20520000       1.22540000
C        1.46890000      -3.83470000       2.38040000
N        1.48120000      -2.48010000       2.44220000
H        0.98840000       2.01470000       0.00890000
H       -0.54830000       1.96440000      -0.87780000
H       -0.52990000       1.98460000       0.89690000
H       -0.99920000      -0.34690000       0.00240000
H        0.50730000      -0.31690000      -0.87920000
H       -0.15000000      -2.94260000      -0.35070000
H        0.62220000      -5.21740000       0.89550000
H        1.93030000      -4.43550000       3.14830000
H        1.88650000      -1.88880000       3.15040000
