16
Properties=species:S:1:pos:R:3 gdb_98106=T pbc="F F F"
O        0.28870000       1.35220000       0.23670000
C        0.10040000       0.01330000      -0.11090000
C       -1.35200000      -0.39110000       0.00900000
O       -2.19520000       0.39860000       0.37560000
C       -1.71440000      -1.84030000      -0.35110000
O       -0.83390000      -2.61750000      -0.66340000
C       -3.14850000      -2.21210000      -0.29430000
C       -3.68320000      -2.94400000      -1.49750000
N       -3.46700000      -3.64860000      -0.24800000
H       -0.58460000       1.69230000       0.48260000
H        0.42800000      -0.19010000      -1.14290000
H        0.69450000      -0.66270000       0.52450000
H       -3.80260000      -1.54850000       0.25700000
H       -4.72010000      -2.77660000      -1.77290000
H       -2.99350000      -3.11000000      -2.32050000
H       -2.58300000      -4.15600000      -0.30580000
