23
Properties=species:S:1:pos:R:3 gdb_72484=T pbc="F F F"
C       -0.06370000       1.51720000       0.01690000
C        0.01290000      -0.00720000      -0.01250000
C        0.84820000      -0.55370000      -1.20810000
C        1.42820000      -1.91470000      -0.72340000
C        0.89510000      -2.08090000       0.71950000
C        0.75480000      -0.62850000       1.19150000
O       -0.37560000      -2.73030000       0.77160000
C       -1.34290000      -2.16260000      -0.09950000
C       -1.40300000      -0.63070000      -0.01690000
H        0.93700000       1.95970000       0.07870000
H       -0.54720000       1.90850000      -0.88590000
H       -0.63990000       1.87090000       0.87930000
H        0.24160000      -0.65370000      -2.11400000
H        1.65430000       0.14850000      -1.44440000
H        1.13870000      -2.76200000      -1.35050000
H        2.52170000      -1.89000000      -0.70490000
H        1.54860000      -2.69280000       1.34550000
H        1.74220000      -0.16840000       1.32420000
H        0.20370000      -0.54840000       2.13290000
H       -1.14150000      -2.46670000      -1.13890000
H       -2.30080000      -2.60930000       0.18360000
H       -1.92330000      -0.32740000       0.89990000
H       -1.99080000      -0.25150000      -0.86260000
