21
Properties=species:S:1:pos:R:3 gdb_109898=T pbc="F F F"
C       -0.50060000       1.65700000      -0.07350000
O       -0.21830000       0.31860000       0.30280000
C       -1.30430000      -0.56060000       0.11310000
C       -1.36650000      -1.22410000      -1.31140000
O       -0.34060000      -0.82540000      -2.18590000
C       -1.26820000      -2.63540000      -0.64630000
C        0.17040000      -3.18850000      -0.51950000
C        0.33440000      -2.46310000       0.85150000
C       -1.12980000      -1.94820000       0.76650000
H        0.40040000       2.24300000       0.12360000
H       -0.75510000       1.73510000      -1.13840000
H       -1.33050000       2.06670000       0.52040000
H       -2.24390000      -0.06840000       0.39880000
H       -2.31740000      -1.06890000      -1.83020000
H        0.36200000      -0.46660000      -1.62700000
H       -2.06340000      -3.33690000      -0.90120000
H        0.20640000      -4.27700000      -0.43800000
H        0.84660000      -2.88100000      -1.32070000
H        0.50110000      -3.14230000       1.69030000
H        1.08950000      -1.67610000       0.89470000
H       -1.77740000      -2.16380000       1.61690000
