19
Properties=species:S:1:pos:R:3 gdb_84706=T pbc="F F F"
O       -0.07230000       1.43000000      -0.06640000
C        0.03500000       0.01430000      -0.05040000
C        0.69300000      -0.56610000       1.20160000
C        0.03050000      -1.61520000       1.69880000
C       -1.17280000      -1.96190000       0.84730000
C       -2.60010000      -2.09230000       1.43070000
C       -3.49450000      -1.39780000       0.36090000
C       -2.54490000      -0.39250000      -0.27100000
C       -1.28120000      -0.71960000      -0.01710000
H       -0.66690000       1.66940000       0.65420000
H        0.63370000      -0.22270000      -0.94130000
H        1.61100000      -0.14300000       1.59480000
H        0.33480000      -2.19160000       2.56650000
H       -0.94580000      -2.85370000       0.23970000
H       -2.89830000      -3.12430000       1.63490000
H       -2.66400000      -1.53230000       2.37040000
H       -3.86900000      -2.11890000      -0.38010000
H       -4.37820000      -0.92270000       0.80050000
H       -2.87730000       0.48510000      -0.81390000
