20
Properties=species:S:1:pos:R:3 gdb_79260=T pbc="F F F"
C       -0.14110000       1.55770000       0.02280000
C        0.03570000       0.04110000       0.02000000
C        0.93970000      -0.52270000      -1.07040000
C        2.32610000      -0.61000000      -0.52110000
C        2.28820000      -0.10720000       0.91270000
C        0.83510000      -0.56350000       1.20180000
O        0.26780000      -0.27740000       2.44860000
C        0.92520000      -2.03280000       0.73030000
N        1.48260000      -1.83750000      -0.62870000
H        0.81370000       2.08730000      -0.04190000
H       -0.74920000       1.87620000      -0.83020000
H       -0.64760000       1.87780000       0.93800000
H       -0.95460000      -0.43000000      -0.01110000
H        0.72150000      -0.41190000      -2.12640000
H        3.21680000      -0.57750000      -1.13720000
H        3.01590000      -0.60870000       1.56140000
H        2.42950000       0.97230000       1.00110000
H        0.82980000      -0.65390000       3.13370000
H        1.60370000      -2.64600000       1.33380000
H       -0.05020000      -2.52520000       0.67940000
