22
Properties=species:S:1:pos:R:3 gdb_92086=T pbc="F F F"
C        0.01430000       1.56550000       0.01290000
C        0.04830000       0.03480000       0.02330000
C        0.70780000      -0.50880000      -1.25540000
N        0.89160000      -1.97130000      -1.30100000
C        2.15670000      -2.50360000      -0.79050000
C        0.89330000      -2.72890000      -0.04040000
C        0.61070000      -2.05580000       1.29300000
C        0.74540000      -0.52650000       1.26740000
O        2.10590000      -0.08950000       1.23560000
H        1.02810000       1.97250000       0.05680000
H       -0.46880000       1.94210000      -0.89470000
H       -0.54210000       1.95370000       0.87290000
H       -0.98380000      -0.34050000       0.05920000
H        0.08280000      -0.23060000      -2.11260000
H        1.67540000      -0.01400000      -1.39510000
H        2.59870000      -3.30500000      -1.37870000
H        2.86220000      -1.79510000      -0.36420000
H        0.42190000      -3.70650000      -0.13740000
H       -0.42030000      -2.28730000       1.58990000
H        1.25230000      -2.48000000       2.07790000
H        0.25340000      -0.11900000       2.16480000
H        2.54430000      -0.42460000       2.02370000
