18
Properties=species:S:1:pos:R:3 gdb_67585=T pbc="F F F"
C       -0.09130000       1.49060000       0.13800000
C       -0.05840000       0.01690000      -0.11300000
C        1.01370000      -0.78670000      -0.75840000
C        0.45330000      -1.95060000      -1.54760000
C       -0.76350000      -2.22370000      -0.68740000
C       -0.43820000      -1.86910000       0.75460000
N        0.75250000      -0.93880000       0.71560000
C       -1.28040000      -0.93850000      -0.05480000
O       -2.59700000      -0.57580000       0.11700000
H        0.91720000       1.86540000       0.33550000
H       -0.49530000       2.03140000      -0.72570000
H       -0.71940000       1.72260000       1.00430000
H        1.97530000      -0.34630000      -1.00140000
H        0.20080000      -1.66480000      -2.57510000
H        1.14540000      -2.79880000      -1.58240000
H       -1.46600000      -3.02550000      -0.87840000
H       -0.62850000      -2.48570000       1.62200000
H       -2.99570000      -0.44500000      -0.75100000
