15
Properties=species:S:1:pos:R:3 gdb_29488=T pbc="F F F"
C       -0.01530000       1.53340000       0.02930000
C       -0.00660000       0.03850000       0.03730000
C       -0.03380000      -0.80150000      -1.04480000
O       -0.01560000      -2.13900000      -0.70480000
C        0.02440000      -2.14810000       0.64870000
C        0.03120000      -0.87310000       1.13570000
O        0.07140000      -0.88200000       2.49170000
C        0.08920000      -2.21460000       2.83770000
C        0.06220000      -3.04580000       1.75130000
H        0.87960000       1.94060000       0.51250000
H       -0.05070000       1.91830000      -0.99320000
H       -0.88160000       1.93050000       0.56970000
H       -0.06650000      -0.60010000      -2.10310000
H        0.12150000      -2.41020000       3.89650000
H        0.06910000      -4.12300000       1.77160000
