22
Properties=species:S:1:pos:R:3 gdb_87823=T pbc="F F F"
C       -0.14420000       1.48160000       0.01240000
C        0.03530000      -0.01990000       0.03710000
C        1.40340000      -0.63910000      -0.17310000
C        0.74110000      -0.69500000       1.17380000
C        1.29090000      -0.08850000       2.48990000
C        0.83620000      -1.37470000       3.19300000
N       -0.63090000      -1.48070000       2.96480000
C        0.32210000      -1.95600000       1.92030000
C        0.29240000      -3.35770000       1.39710000
H        0.71980000       1.99100000       0.45190000
H       -0.25970000       1.85140000      -1.01270000
H       -1.03070000       1.78330000       0.58090000
H       -0.79780000      -0.57730000      -0.38640000
H        1.47500000      -1.55180000      -0.75720000
H        2.25150000       0.02980000      -0.29260000
H        2.37720000       0.03490000       2.47780000
H        0.81700000       0.82920000       2.84920000
H        1.29900000      -1.86260000       4.04280000
H       -0.94220000      -2.31100000       3.47180000
H       -0.54800000      -3.51120000       0.70900000
H        1.21460000      -3.59670000       0.85720000
H        0.18620000      -4.07850000       2.21520000
