18
Properties=species:S:1:pos:R:3 gdb_96540=T pbc="F F F"
O        0.08540000       1.35500000       0.25370000
C       -0.00390000      -0.04400000       0.01300000
C       -1.48960000      -0.42460000      -0.00750000
O       -2.31400000       0.38360000      -0.81620000
C       -2.10980000       0.27580000      -2.20820000
C       -0.79320000       0.89560000      -2.68430000
N        0.37420000       0.05960000      -2.43640000
C        0.79440000      -0.44570000      -1.24310000
O        1.77770000      -1.16150000      -1.15310000
H        1.01330000       1.56620000       0.40210000
H        0.46360000      -0.62190000       0.82150000
H       -1.57250000      -1.48850000      -0.28640000
H       -1.88080000      -0.30400000       1.00670000
H       -2.16010000      -0.77630000      -2.53500000
H       -2.94300000       0.81900000      -2.66610000
H       -0.85090000       1.04760000      -3.76590000
H       -0.67960000       1.87520000      -2.20690000
H        0.95940000      -0.19900000      -3.21650000
