27
Properties=species:S:1:pos:R:3 gdb_122963=T pbc="F F F"
C       -0.04230000       1.56090000      -0.08310000
C       -0.02550000       0.04330000       0.11970000
C       -1.40510000      -0.59780000      -0.06020000
C       -1.38730000      -2.10780000       0.14120000
O       -2.69900000      -2.59990000      -0.03670000
C       -2.83310000      -4.01680000      -0.01130000
C       -2.78010000      -4.56410000       1.41830000
C       -4.15780000      -4.34830000      -0.70240000
C       -4.20570000      -3.90990000      -2.16750000
H        0.95390000       1.99320000       0.05300000
H       -0.38410000       1.82130000      -1.09090000
H       -0.71740000       2.04740000       0.62950000
H        0.68360000      -0.41130000      -0.58500000
H        0.35590000      -0.18670000       1.12340000
H       -2.11840000      -0.15970000       0.64890000
H       -1.79300000      -0.38270000      -1.06360000
H       -0.70160000      -2.58230000      -0.58230000
H       -1.00450000      -2.34500000       1.14740000
H       -2.00780000      -4.46160000      -0.59580000
H       -2.88480000      -5.65380000       1.41680000
H       -1.83270000      -4.32360000       1.90920000
H       -3.59240000      -4.13880000       2.01670000
H       -4.32680000      -5.42900000      -0.62460000
H       -4.96450000      -3.86210000      -0.13950000
H       -5.17860000      -4.13350000      -2.61570000
H       -4.02740000      -2.83510000      -2.25020000
H       -3.44060000      -4.42480000      -2.75990000
