12
Properties=species:S:1:pos:R:3 gdb_4449=T pbc="F F F"
N       -0.12170000       1.38440000       0.07320000
C       -0.11230000      -0.00070000       0.02470000
C       -1.13720000      -0.86360000       0.02950000
O       -2.46760000      -0.68550000       0.08080000
N       -0.61700000      -2.14640000      -0.03260000
C        0.76720000      -2.08580000      -0.07750000
O        1.55780000      -2.98780000      -0.13560000
O        1.08550000      -0.75300000      -0.04200000
H        0.34130000       1.76240000       0.89460000
H        0.28570000       1.81950000      -0.74950000
H       -2.62010000       0.26830000       0.11910000
H       -1.13600000      -3.00680000      -0.04490000
