16
Properties=species:S:1:pos:R:3 gdb_12248=T pbc="F F F"
C       -0.22360000       1.45960000       0.18040000
C       -0.02040000      -0.05180000       0.04040000
C        0.96680000      -0.59870000       1.04940000
O        0.47620000      -0.45560000       2.44260000
C        0.40580000      -1.80840000       2.61550000
O       -0.03140000      -2.41730000       3.53960000
C        1.02860000      -2.13020000       1.24680000
O        0.25550000      -2.88720000       0.35560000
H        0.71320000       2.00490000       0.02190000
H       -0.94990000       1.82260000      -0.55200000
H       -0.59270000       1.70990000       1.17900000
H       -0.97050000      -0.58300000       0.15190000
H        0.35620000      -0.30020000      -0.95930000
H        1.94320000      -0.11200000       0.97380000
H        2.05410000      -2.51430000       1.34030000
H        0.00280000      -3.70280000       0.80270000
