13
Properties=species:S:1:pos:R:3 gdb_130767=T pbc="F F F"
O        0.06470000      -0.02980000       0.00170000
C        0.03820000       1.16720000       0.00800000
O       -1.10380000       1.94710000       0.02990000
N       -0.78310000       3.34120000       0.03210000
C        0.50940000       3.34630000       0.01260000
C        1.59300000       4.31600000       0.00080000
C        2.74640000       3.62630000      -0.02040000
C        2.51000000       2.12750000      -0.02420000
N        1.06090000       2.09260000      -0.00200000
H        1.46130000       5.38710000       0.00820000
H        3.74240000       4.04780000      -0.03350000
H        2.91580000       1.63840000      -0.91840000
H        2.94310000       1.62950000       0.85200000
