21
Properties=species:S:1:pos:R:3 gdb_85629=T pbc="F F F"
C       -0.83140000       1.22120000       0.01410000
C        0.10100000       0.01340000      -0.05910000
C        1.27520000       0.16800000      -1.05620000
C        2.33760000      -0.75640000      -0.48030000
C        2.04020000      -1.09460000       0.78420000
C        0.77530000      -0.43460000       1.27850000
C        1.09850000       0.69870000       2.27170000
C        3.48350000      -1.14500000      -1.21460000
C        4.43970000      -1.45180000      -1.88170000
H       -0.30040000       2.12680000       0.32500000
H       -1.27880000       1.42240000      -0.96510000
H       -1.65070000       1.05340000       0.72160000
H       -0.48590000      -0.84810000      -0.40110000
H        0.99560000      -0.10000000      -2.08010000
H        1.65060000       1.20020000      -1.09570000
H        2.66560000      -1.71670000       1.41490000
H        0.13070000      -1.15430000       1.79970000
H        1.72070000       1.47140000       1.80870000
H        0.18630000       1.17250000       2.64740000
H        1.64870000       0.30610000       3.13300000
H        5.28850000      -1.73050000      -2.45510000
