19
Properties=species:S:1:pos:R:3 gdb_63097=T pbc="F F F"
C       -0.17490000       1.53260000       0.19130000
C        0.01340000       0.04410000       0.01130000
O       -1.00120000      -0.71400000       0.61700000
C        0.52620000      -0.61160000      -1.22000000
C        1.25260000       0.23030000      -2.27610000
C        2.51500000       0.80840000      -1.59720000
C        2.62280000       0.14090000      -0.21290000
O        3.58380000       0.21220000       0.51440000
C        1.38730000      -0.65660000       0.04260000
H        0.58400000       2.12430000      -0.32220000
H       -1.15830000       1.82640000      -0.18950000
H       -0.13120000       1.79740000       1.25450000
H       -0.98650000      -0.52920000       1.56320000
H       -0.00630000      -1.49950000      -1.54050000
H        1.53510000      -0.42070000      -3.10780000
H        0.60450000       1.00850000      -2.69120000
H        3.43100000       0.58990000      -2.15290000
H        2.49050000       1.89580000      -1.47310000
H        1.46000000      -1.52420000       0.68610000
