18
Properties=species:S:1:pos:R:3 gdb_91614=T pbc="F F F"
O       -0.04130000       1.42750000      -0.03860000
C        0.01020000       0.01740000       0.02490000
C        0.63560000      -0.55400000       1.34400000
C       -0.53850000      -1.37840000       1.92700000
C       -1.17360000      -1.95740000       0.64360000
C       -1.43410000      -0.56160000       0.04050000
C       -2.15430000       0.13720000       1.20860000
O       -2.97830000       1.01740000       1.18570000
N       -1.61300000      -0.46690000       2.33330000
H        0.85990000       1.76250000      -0.07460000
H        0.53790000      -0.38800000      -0.85040000
H        1.50900000      -1.18270000       1.14470000
H        0.93660000       0.25760000       2.01200000
H       -0.28150000      -2.08480000       2.71670000
H       -0.47810000      -2.56420000       0.05700000
H       -2.08510000      -2.52510000       0.84040000
H       -1.96310000      -0.48240000      -0.90630000
H       -1.61100000       0.02560000       3.21400000
