20
Properties=species:S:1:pos:R:3 gdb_62705=T pbc="F F F"
C       -0.29450000       1.60780000       0.00640000
C       -0.01940000       0.11070000      -0.01090000
C       -1.32800000      -0.67830000       0.00630000
C        0.98840000      -0.48250000      -1.04240000
O        1.99630000       0.45110000      -1.40610000
C        2.74600000       0.75160000      -0.22310000
C        2.28050000      -0.25140000       0.81520000
C        1.53920000      -1.31900000       0.13230000
N        0.83080000      -0.43530000       1.13220000
H        0.59240000       2.20750000      -0.19420000
H       -1.04360000       1.86710000      -0.74910000
H       -0.69270000       1.89320000       0.98640000
H       -1.94190000      -0.41960000      -0.86270000
H       -1.14560000      -1.75690000      -0.01000000
H       -1.89700000      -0.45020000       0.91260000
H        0.60280000      -0.95170000      -1.94760000
H        3.81580000       0.61400000      -0.42990000
H        2.59320000       1.79440000       0.07890000
H        2.91970000      -0.46350000       1.66520000
H        1.65520000      -2.38970000       0.24270000
