13
Properties=species:S:1:pos:R:3 gdb_132880=T pbc="F F F"
N        0.00260000       1.31050000       0.00800000
C       -0.04590000      -0.03440000       0.00100000
N       -1.17670000      -0.69210000       0.00400000
C       -1.11560000      -2.03860000      -0.00350000
F       -2.29280000      -2.66090000       0.00010000
C        0.02790000      -2.76000000      -0.01390000
N        1.21680000      -2.04320000      -0.01710000
C        1.29620000      -0.67720000      -0.01040000
O        2.34560000      -0.04360000      -0.01330000
H        0.91290000       1.74090000       0.00370000
H       -0.84230000       1.85320000       0.01450000
H        0.07920000      -3.83740000      -0.01990000
H        2.10120000      -2.53120000      -0.02490000
