19
Properties=species:S:1:pos:R:3 gdb_86314=T pbc="F F F"
O       -0.07550000       1.44370000       0.07990000
C        0.07370000       0.02360000       0.06860000
C        0.22300000      -0.55870000       1.49940000
C       -1.33120000      -0.63610000       1.56950000
O       -1.94320000       0.47860000       2.17750000
C       -1.34430000      -0.58320000       0.01270000
C       -2.50150000       0.01210000      -0.79670000
O       -2.72170000      -1.24080000      -1.48760000
C       -1.61740000      -1.86060000      -0.80490000
H        0.76950000       1.83180000       0.33160000
H        0.79270000      -0.28900000      -0.69950000
H        0.68840000      -1.54910000       1.49220000
H        0.71590000       0.07020000       2.24610000
H       -1.76920000      -1.52340000       2.03410000
H       -1.56500000       1.26340000       1.75820000
H       -3.36860000       0.31760000      -0.20010000
H       -2.22500000       0.82100000      -1.48260000
H       -0.81730000      -2.15730000      -1.49760000
H       -1.92850000      -2.74010000      -0.22520000
