18
Properties=species:S:1:pos:R:3 gdb_114578=T pbc="F F F"
C        0.09200000       1.32750000       0.12500000
O       -0.30040000       0.01590000      -0.22500000
C        0.50230000      -0.55930000      -1.21440000
C        1.90400000      -1.14320000      -0.80470000
C        1.42710000      -2.53150000      -1.23770000
C        0.21010000      -2.92500000      -0.46910000
C        0.03820000      -1.96000000      -1.62400000
C       -0.77850000      -2.24890000      -2.75530000
N       -1.43210000      -2.46870000      -3.68560000
H        1.10800000       1.35460000       0.54580000
H        0.05720000       2.00360000      -0.74250000
H       -0.61180000       1.68310000       0.88030000
H        0.58950000       0.10530000      -2.08470000
H        2.71740000      -0.74380000      -1.41260000
H        2.16170000      -1.04920000       0.25410000
H        2.00190000      -3.24730000      -1.81040000
H       -0.17110000      -3.92200000      -0.65880000
H        0.04620000      -2.55250000       0.53720000
