17
Properties=species:S:1:pos:R:3 gdb_116551=T pbc="F F F"
C        0.01680000       1.67070000       0.15880000
C        0.07110000       0.14970000      -0.02490000
N       -1.27340000      -0.38830000      -0.02140000
C       -1.79090000      -1.03650000      -0.98370000
N       -3.09340000      -1.53620000      -0.94400000
C       -4.04100000      -1.45640000       0.05890000
O       -3.92410000      -0.91680000       1.12690000
C       -1.14750000      -1.38390000      -2.30760000
O       -1.73060000      -2.01330000      -3.16000000
H        1.02710000       2.07570000       0.26920000
H       -0.45420000       2.14990000      -0.70490000
H       -0.56710000       1.92320000       1.04720000
H        0.67960000      -0.09460000      -0.90630000
H        0.58170000      -0.29080000       0.84090000
H       -3.35260000      -2.03070000      -1.78880000
H       -4.96660000      -1.97750000      -0.26130000
H       -0.11710000      -1.02920000      -2.46420000
