18
Properties=species:S:1:pos:R:3 gdb_28768=T pbc="F F F"
C       -0.02100000       1.47130000       0.13040000
C       -0.00920000      -0.01310000      -0.00620000
C       -0.02640000      -0.82570000      -1.12970000
C       -0.00280000      -2.18740000      -0.71380000
C        0.02830000      -2.17190000       0.66600000
C        0.06380000      -2.98700000       1.86160000
C        0.08050000      -2.18920000       2.94610000
C        0.05610000      -0.73280000       2.52370000
N        0.02410000      -0.85210000       1.07560000
H        0.87110000       1.84610000       0.64970000
H       -0.05170000       1.93760000      -0.85670000
H       -0.89250000       1.82750000       0.69580000
H       -0.05350000      -0.46560000      -2.14790000
H       -0.00820000      -3.05960000      -1.34880000
H        0.07490000      -4.06830000       1.86250000
H        0.10720000      -2.49340000       3.98260000
H       -0.82530000      -0.19930000       2.90530000
H        0.94310000      -0.18150000       2.86470000
