20
Properties=species:S:1:pos:R:3 gdb_23612=T pbc="F F F"
O        0.11180000       1.25900000       0.84260000
N        0.09850000      -0.10580000       0.49900000
C       -1.00170000      -0.47440000      -0.04790000
C       -1.07150000      -1.89210000      -0.50650000
C       -0.21250000      -2.34230000      -1.68090000
C        0.07720000      -2.84290000      -0.29500000
C       -2.15620000       0.42830000      -0.28180000
C       -3.10050000       0.20790000      -1.44940000
C       -3.58530000      -0.04000000      -0.05460000
H        0.98440000       1.35300000       1.23700000
H       -2.06430000      -2.32810000      -0.46760000
H       -0.65060000      -3.02130000      -2.40460000
H        0.46110000      -1.60220000      -2.09780000
H        0.94620000      -2.44660000       0.21420000
H       -0.16730000      -3.87250000      -0.05880000
H       -1.95790000       1.45740000      -0.01790000
H       -3.45000000       1.08980000      -1.97430000
H       -2.92010000      -0.64960000      -2.08730000
H       -3.74630000      -1.06440000       0.26140000
H       -4.26560000       0.67290000       0.39750000
