16
Properties=species:S:1:pos:R:3 gdb_51965=T pbc="F F F"
O        0.49680000       0.14960000       0.36840000
C        0.53070000       1.34010000       0.36680000
O        0.79890000       2.05190000      -0.75560000
C        0.88680000       3.45500000      -0.61970000
C        2.14010000       3.90060000       0.13250000
O        2.82650000       3.11010000       0.74220000
C        2.44870000       5.35980000       0.10050000
C        2.77410000       5.99620000       1.42240000
N        3.82080000       5.76560000       0.44280000
H        0.32160000       1.97960000       1.24390000
H        0.89210000       3.86570000      -1.63310000
H        0.00760000       3.87480000      -0.10640000
H        1.96150000       5.95490000      -0.66650000
H        2.49480000       7.03420000       1.57740000
H        2.72660000       5.35530000       2.29840000
H        4.32770000       4.91650000       0.69650000
