15
Properties=species:S:1:pos:R:3 gdb_4354=T pbc="F F F"
C       -0.01800000       1.47340000       0.03000000
C       -0.00240000      -0.03060000      -0.00720000
N       -0.08670000      -0.61710000      -1.20500000
C       -0.06570000      -1.95850000      -1.19470000
C        0.03740000      -2.71080000      -0.04430000
C        0.11920000      -1.99030000       1.16160000
N        0.26620000      -2.61190000       2.37160000
N        0.09440000      -0.65330000       1.17360000
H        0.92270000       1.85070000       0.44470000
H       -0.15720000       1.87450000      -0.97390000
H       -0.81900000       1.82940000       0.68520000
H       -0.13630000      -2.44610000      -2.16500000
H        0.05720000      -3.79420000      -0.06750000
H       -0.00230000      -3.57780000       2.45540000
H        0.10890000      -2.03030000       3.17960000
