21
Properties=species:S:1:pos:R:3 gdb_95943=T pbc="F F F"
C       -0.37560000       1.47670000      -0.01600000
C        0.08110000       0.01920000      -0.05190000
C        1.08000000      -0.30460000      -1.17500000
O        1.69150000      -1.51900000      -0.79230000
C        1.96850000      -1.39800000       0.59420000
C        0.83080000      -0.54580000       1.21480000
C        1.37370000       0.52570000       2.17700000
C       -0.15300000      -1.40080000       2.00190000
O       -0.01310000      -2.56080000       2.28880000
H        0.46310000       2.16790000       0.11000000
H       -0.87700000       1.73570000      -0.95460000
H       -1.08800000       1.66120000       0.79400000
H       -0.80350000      -0.60920000      -0.21940000
H        0.60750000      -0.44980000      -2.15030000
H        1.82530000       0.50630000      -1.26830000
H        2.00830000      -2.39970000       1.02640000
H        2.93850000      -0.90000000       0.75000000
H        2.01690000       1.23640000       1.65090000
H        0.56940000       1.09060000       2.65920000
H        1.97120000       0.05700000       2.96570000
H       -1.06650000      -0.84420000       2.32120000
