16
Properties=species:S:1:pos:R:3 gdb_125800=T pbc="F F F"
C        0.00330000       1.52050000      -0.00070000
C       -0.02000000       0.02880000       0.05140000
N       -0.02180000      -0.68000000      -1.06840000
O       -0.04250000      -2.04110000      -0.70740000
C       -0.05840000      -2.09140000       0.62810000
C       -0.04280000      -0.85660000       1.15850000
O       -0.02580000      -0.80690000       2.51890000
C       -0.19390000      -2.19990000       2.93650000
C       -0.02350000      -3.14230000       1.68560000
H        0.88950000       1.91500000       0.50700000
H        0.01340000       1.85660000      -1.03900000
H       -0.87440000       1.94260000       0.49930000
H        0.54040000      -2.39780000       3.71940000
H       -1.19910000      -2.29710000       3.35820000
H       -0.83220000      -3.87670000       1.62750000
H        0.92440000      -3.69310000       1.70400000
