18
Properties=species:S:1:pos:R:3 gdb_52187=T pbc="F F F"
N       -0.06740000       1.21100000      -0.60750000
C       -0.08780000       0.05620000      -0.09770000
O       -1.12480000      -0.76810000      -0.33370000
C       -1.02180000      -2.08920000       0.20970000
C       -2.37820000      -2.72860000       0.12610000
C       -2.83100000      -3.37480000      -1.14890000
C       -2.50080000      -4.24730000       0.05290000
C       -1.34070000      -5.09150000       0.04620000
C       -0.37610000      -5.81080000       0.05080000
H        0.77460000       1.70270000      -0.31560000
H        0.67960000      -0.37840000       0.55910000
H       -0.28680000      -2.67340000      -0.35660000
H       -0.68180000      -2.03840000       1.25310000
H       -3.13980000      -2.23270000       0.71980000
H       -3.87250000      -3.28890000      -1.43500000
H       -2.13130000      -3.39670000      -1.97650000
H       -3.35210000      -4.66270000       0.58400000
H        0.47250000      -6.44900000       0.04880000
