14
Properties=species:S:1:pos:R:3 gdb_97879=T pbc="F F F"
O       -0.02080000       1.31850000       0.66190000
C       -0.01190000       0.15740000      -0.15680000
C       -1.34310000      -0.43640000      -0.17260000
C       -2.43290000      -0.94260000      -0.19630000
C       -3.74970000      -1.54970000      -0.21240000
C       -3.77740000      -2.99330000       0.27890000
O       -2.83140000      -3.63240000       0.64830000
C       -5.13210000      -3.59110000       0.26380000
N       -6.19500000      -4.04600000       0.24650000
H        0.87490000       1.67120000       0.67040000
H        0.28540000       0.39640000      -1.19090000
H        0.70300000      -0.59410000       0.21530000
H       -4.45870000      -0.98210000       0.40830000
H       -4.19260000      -1.54340000      -1.21950000
