18
Properties=species:S:1:pos:R:3 gdb_75265=T pbc="F F F"
C       -0.01410000       1.49530000       0.06280000
C       -0.02780000       0.00130000      -0.00510000
C       -0.01510000      -0.77400000      -1.09500000
C       -0.02050000      -2.25070000      -0.76870000
C        0.03460000      -2.27600000       0.75780000
C        1.25690000      -1.68730000       1.45200000
C        2.47450000      -1.42320000       0.73960000
N        3.46640000      -1.22790000       0.17640000
C       -0.00650000      -0.84480000       1.23140000
H        0.89310000       1.85900000       0.56090000
H       -0.05620000       1.94020000      -0.93440000
H       -0.86560000       1.87450000       0.64170000
H        0.03630000      -0.40630000      -2.11360000
H       -0.93050000      -2.74620000      -1.13070000
H        0.82570000      -2.77830000      -1.22630000
H       -0.47500000      -3.06630000       1.29530000
H        1.41790000      -2.03380000       2.46820000
H       -0.53670000      -0.52890000       2.12380000
