19
Properties=species:S:1:pos:R:3 gdb_89828=T pbc="F F F"
C       -0.09250000       1.55200000       0.01330000
C        0.04580000       0.02800000      -0.00250000
O        0.76710000      -0.45920000      -1.13080000
C        2.10370000      -0.72840000      -0.74120000
C        3.00190000      -1.25790000      -1.80220000
C        3.19650000       0.15910000      -1.28250000
C        2.06090000      -1.19710000       0.69720000
C        0.81640000      -0.48160000       1.22530000
O        0.49190000      -0.32160000       2.37130000
H        0.88940000       2.03430000       0.02540000
H       -0.63370000       1.88930000      -0.87420000
H       -0.64170000       1.86100000       0.90710000
H       -0.94890000      -0.43360000      -0.01910000
H        3.72920000      -2.01670000      -1.53400000
H        2.57150000      -1.36820000      -2.79130000
H        2.89460000       0.96840000      -1.93740000
H        4.05910000       0.36810000      -0.65780000
H        1.88610000      -2.27900000       0.76430000
H        2.94210000      -0.95660000       1.29410000
