18
Properties=species:S:1:pos:R:3 gdb_82283=T pbc="F F F"
C        0.23060000       1.57830000      -0.02250000
C        0.09000000       0.05190000       0.00330000
C        0.69530000      -0.59280000      -1.22710000
N        2.15690000      -0.68150000      -1.26340000
C        1.34740000      -1.92930000      -1.12920000
C        1.40170000      -2.59060000       0.19150000
C        1.08990000      -1.93870000       1.31840000
C        0.61250000      -0.53920000       1.32570000
O        0.55700000       0.09910000       2.35840000
H        1.28520000       1.85480000      -0.11330000
H       -0.31280000       2.00510000      -0.87130000
H       -0.15760000       2.00760000       0.90200000
H       -0.98210000      -0.20260000       0.00500000
H        0.18240000      -0.36290000      -2.15960000
H        2.48950000      -0.59810000      -2.22140000
H        1.30630000      -2.58340000      -1.99520000
H        1.73260000      -3.62540000       0.22640000
H        1.19010000      -2.39900000       2.29600000
