21
Properties=species:S:1:pos:R:3 gdb_116168=T pbc="F F F"
C        0.02870000       1.36300000      -0.02330000
O        0.05620000      -0.05410000       0.00610000
C        0.70860000      -0.58620000       1.10490000
C        0.51690000      -2.09990000       1.09990000
C        1.31520000      -2.74410000       2.23210000
O        1.18330000      -4.15100000       2.09390000
C        2.77490000      -2.27660000       2.17410000
C        2.83380000      -0.74710000       2.11820000
O        2.08720000      -0.24700000       1.02320000
H        1.03620000       1.78350000      -0.10710000
H       -0.56000000       1.64840000      -0.89760000
H       -0.45180000       1.76940000       0.87960000
H        0.30500000      -0.14690000       2.04260000
H       -0.54530000      -2.34200000       1.19420000
H        0.86990000      -2.48660000       0.13850000
H        0.88400000      -2.41710000       3.19520000
H        1.68500000      -4.56780000       2.80200000
H        3.33330000      -2.63940000       3.04680000
H        3.24320000      -2.69560000       1.27650000
H        2.45820000      -0.31910000       3.06440000
H        3.85890000      -0.39390000       1.97920000
