15
Properties=species:S:1:pos:R:3 gdb_132430=T pbc="F F F"
C       -0.03020000       1.50860000       0.01780000
C       -0.00770000       0.01080000      -0.00750000
C       -0.03400000      -0.71770000      -1.15060000
N       -0.01470000      -2.10270000      -1.22520000
C        0.03160000      -2.68970000      -0.09730000
F        0.05470000      -4.00990000      -0.02330000
N        0.06230000      -2.09390000       1.11840000
C        0.04550000      -0.68710000       1.27400000
N        0.07310000      -0.07890000       2.39950000
H        0.85700000       1.90110000       0.52560000
H       -0.07170000       1.91760000      -0.99480000
H       -0.89200000       1.87360000       0.58630000
H       -0.07360000      -0.21800000      -2.11360000
H        0.09860000      -2.67880000       1.94150000
H        0.10920000      -0.72350000       3.18990000
