21
Properties=species:S:1:pos:R:3 gdb_62557=T pbc="F F F"
C       -0.03110000       1.51190000       0.05600000
C        0.04840000      -0.00290000       0.00180000
C       -1.16650000      -0.65960000      -0.63550000
C        1.34610000      -0.74700000      -0.26480000
O        1.45420000      -1.63170000      -1.32040000
C        2.51290000      -0.05010000       0.42050000
O        1.79620000      -0.03510000       1.68070000
C        0.70700000      -0.79960000       1.12220000
C        0.09470000      -1.82300000       2.02230000
H        0.76120000       1.93440000       0.67680000
H        0.03620000       1.94780000      -0.94720000
H       -0.98880000       1.82470000       0.48740000
H       -1.31610000      -0.27250000      -1.64920000
H       -1.05940000      -1.74260000      -0.71980000
H       -2.07090000      -0.44030000      -0.05700000
H        2.03170000      -2.35640000      -1.05500000
H        3.40990000      -0.68060000       0.49330000
H        2.79780000       0.95170000       0.07910000
H       -0.34800000      -1.33610000       2.89930000
H       -0.69540000      -2.37930000       1.51310000
H        0.84760000      -2.53240000       2.38130000
