16
Properties=species:S:1:pos:R:3 gdb_130189=T pbc="F F F"
N       -0.02570000       1.40460000      -0.09710000
C        0.05860000       0.01230000      -0.04710000
N       -1.02060000      -0.76080000      -0.21410000
N       -0.56920000      -2.04900000      -0.16260000
C        0.77260000      -2.09410000       0.00440000
C        1.20010000      -0.80350000       0.09550000
O        2.53930000      -0.65680000       0.35020000
C        3.08520000      -1.99050000       0.17150000
C        1.91270000      -3.03320000       0.24360000
H        0.58260000       1.85900000       0.57140000
H       -0.98060000       1.71750000       0.02550000
H       -1.21550000      -2.78930000      -0.36680000
H        3.55930000      -2.03240000      -0.81630000
H        3.84720000      -2.14490000       0.93800000
H        1.85310000      -3.52350000       1.22400000
H        2.04270000      -3.81650000      -0.50950000
