16
Properties=species:S:1:pos:R:3 gdb_29207=T pbc="F F F"
C       -0.06700000       1.49540000      -0.01130000
C       -0.01660000      -0.00860000      -0.00370000
N       -0.00840000      -0.61710000      -1.15890000
C        0.02020000      -2.00200000      -1.24170000
O        0.02680000      -2.63540000      -2.27700000
N        0.03920000      -2.67450000      -0.00580000
C        0.05650000      -2.05210000       1.20440000
C        0.02110000      -0.69280000       1.26620000
N       -0.07330000       0.03420000       2.47260000
H        0.85820000       1.92180000       0.39900000
H       -0.18820000       1.84970000      -1.03440000
H       -0.88990000       1.85700000       0.61450000
H        0.05410000      -3.68190000      -0.06710000
H        0.08440000      -2.68980000       2.08130000
H        0.06600000      -0.54780000       3.28940000
H        0.56960000       0.81590000       2.51540000
