18
Properties=species:S:1:pos:R:3 gdb_66124=T pbc="F F F"
O       -0.08390000       1.38660000       0.02220000
C        0.02070000      -0.03560000       0.00250000
C        0.66070000      -0.61790000       1.30020000
C       -0.10910000      -1.93070000       1.53880000
N       -1.44790000      -1.79630000       0.92510000
C       -2.14060000      -0.55260000       1.29080000
C       -1.38580000      -0.64080000       0.01680000
C        0.75030000      -0.47820000      -1.19170000
C        1.37260000      -0.81910000      -2.16240000
H        0.76720000       1.74700000      -0.24930000
H        1.73660000      -0.77090000       1.19940000
H        0.49840000       0.11070000       2.09850000
H        0.38960000      -2.76630000       1.03740000
H       -0.20340000      -2.18580000       2.59880000
H       -3.22400000      -0.61870000       1.26830000
H       -1.74370000       0.06800000       2.08920000
H       -1.90040000      -0.72170000      -0.93470000
H        1.91170000      -1.12490000      -3.02520000
