22
Properties=species:S:1:pos:R:3 gdb_110507=T pbc="F F F"
C        0.06640000       1.53180000       0.12310000
C       -0.08070000       0.00930000       0.01130000
C        0.65890000      -0.55880000      -1.19760000
C        2.18550000      -0.65550000      -1.23940000
C        2.14630000      -1.88180000      -2.06470000
N        2.64510000      -1.97380000      -0.66440000
C        1.38310000      -2.68880000      -0.28580000
C        0.67260000      -2.09330000      -1.51640000
C       -0.49360000      -2.76220000      -2.19420000
H        1.11760000       1.82090000       0.22810000
H       -0.32760000       2.03480000      -0.76720000
H       -0.47290000       1.92110000       0.99190000
H        0.28280000      -0.45490000       0.93420000
H       -1.14560000      -0.24870000      -0.06720000
H        0.33210000      -0.03200000      -2.10400000
H        2.92200000       0.13760000      -1.23560000
H        2.69460000      -2.21280000      -2.93730000
H        1.56170000      -3.76370000      -0.38690000
H        0.99340000      -2.47750000       0.71640000
H       -1.38150000      -2.74580000      -1.55090000
H       -0.75490000      -2.25960000      -3.13170000
H       -0.27290000      -3.81020000      -2.42540000
