17
Properties=species:S:1:pos:R:3 gdb_57070=T pbc="F F F"
N       -0.13050000       1.60350000      -0.14330000
C       -0.01870000       0.15070000      -0.06470000
C       -1.34270000      -0.43260000       0.21510000
N       -2.37210000      -0.91660000       0.41590000
C        0.58410000      -0.54390000      -1.31240000
O        0.08180000       0.01460000      -2.54330000
C        1.39190000       0.48140000      -2.93620000
C        2.03540000      -0.15330000      -1.68260000
O        2.64130000       0.70700000      -0.74390000
H        0.80880000       1.98530000      -0.19350000
H       -0.60340000       1.84140000      -1.01120000
H        0.63070000      -0.09690000       0.78380000
H        0.40340000      -1.62410000      -1.26040000
H        1.69600000       0.07260000      -3.90620000
H        1.45430000       1.57620000      -2.95640000
H        2.67580000      -1.01550000      -1.89690000
H        3.56830000       0.82200000      -0.97280000
