15
Properties=species:S:1:pos:R:3 gdb_9607=T pbc="F F F"
C       -0.21050000       1.62330000       0.12520000
C       -0.17170000       0.11560000       0.10730000
C       -1.38060000      -0.58720000      -0.48760000
O       -1.54550000      -0.24880000      -1.85070000
O        1.07400000      -0.47760000      -0.31120000
C        0.67510000      -0.65350000       1.04990000
C        1.47870000       0.00930000       2.05500000
N        2.10550000       0.52310000       2.87890000
H        0.74260000       2.03940000       0.45540000
H       -0.43510000       1.98830000      -0.88020000
H       -1.00000000       1.97460000       0.79730000
H       -1.27850000      -1.67330000      -0.34820000
H       -2.29250000      -0.26270000       0.02430000
H       -0.76410000      -0.56420000      -2.31920000
H        0.38490000      -1.66800000       1.31920000
