23
Properties=species:S:1:pos:R:3 gdb_118528=T pbc="F F F"
C       -0.24120000       1.44470000      -0.85750000
C       -0.33640000      -0.06100000      -1.03590000
O       -1.30880000      -0.55060000      -0.12250000
C       -1.51960000      -1.95340000      -0.12770000
C       -1.65300000      -2.41800000       1.32690000
C       -0.39750000      -2.14940000       2.15830000
C       -2.79510000      -2.30610000      -0.93050000
C       -2.70280000      -2.06030000      -2.36450000
C       -2.63320000      -1.88290000      -3.55190000
H        0.50830000       1.86130000      -1.53720000
H       -1.20410000       1.91750000      -1.07120000
H        0.04240000       1.69550000       0.16890000
H       -0.61750000      -0.31040000      -2.06700000
H        0.63850000      -0.53410000      -0.83370000
H       -0.65880000      -2.45930000      -0.59080000
H       -2.51200000      -1.90100000       1.77330000
H       -1.88950000      -3.48900000       1.33400000
H        0.46620000      -2.69530000       1.76180000
H       -0.15700000      -1.08340000       2.15010000
H       -0.53890000      -2.46120000       3.19740000
H       -3.03550000      -3.36400000      -0.76440000
H       -3.62390000      -1.72430000      -0.50850000
H       -2.57400000      -1.71990000      -4.59930000
