18
Properties=species:S:1:pos:R:3 gdb_105123=T pbc="F F F"
C        0.24400000       1.52070000       0.24680000
C       -0.22230000       0.11440000      -0.13940000
C        0.57260000      -0.46260000      -1.30080000
N        1.91140000      -0.98220000      -0.94860000
C        0.87630000      -1.94590000      -1.37690000
C        0.38160000      -2.88450000      -0.40920000
C       -0.05230000      -3.68930000       0.37170000
C        0.42860000       0.21340000      -2.56670000
C        0.31640000       0.79290000      -3.61530000
H        1.29890000       1.50780000       0.53710000
H        0.12860000       2.22010000      -0.58690000
H       -0.33720000       1.90190000       1.09140000
H       -0.11540000      -0.56570000       0.70970000
H       -1.28310000       0.12430000      -0.41480000
H        2.55910000      -0.82420000      -1.71720000
H        0.95760000      -2.34120000      -2.38660000
H       -0.42880000      -4.39730000       1.06790000
H        0.21350000       1.30200000      -4.54170000
