13
Properties=species:S:1:pos:R:3 gdb_9091=T pbc="F F F"
O       -0.40050000       1.09680000      -0.46560000
C        0.04100000      -0.21190000      -0.17080000
C        0.98940000      -0.76190000      -1.25380000
O        0.29330000      -0.85860000      -2.48450000
C        0.35320000       0.19990000      -3.33080000
O       -0.27350000       0.24180000      -4.34160000
C        0.68870000      -0.29460000       1.15030000
N        1.23540000      -0.33120000       2.16750000
H        0.30920000       1.71920000      -0.26730000
H       -0.85930000      -0.83540000      -0.16310000
H        1.87020000      -0.11210000      -1.34180000
H        1.32560000      -1.76810000      -0.99250000
H        1.05500000       0.98210000      -2.98680000
