17
Properties=species:S:1:pos:R:3 gdb_89947=T pbc="F F F"
O       -0.22660000       1.55530000       0.24100000
C       -0.03380000       0.18030000       0.06400000
C        0.41620000      -0.70550000       1.26830000
C       -0.75590000      -1.70110000       0.95770000
C       -2.02670000      -1.35520000       1.76420000
O       -2.34830000      -0.26480000       0.87680000
C       -1.32850000      -0.63860000      -0.06030000
C       -0.44260000      -3.06850000       0.65800000
C       -0.17900000      -4.21610000       0.40960000
H        0.63330000       1.98700000       0.23660000
H        0.59740000      -0.03900000      -0.81130000
H        1.41640000      -1.13320000       1.18980000
H        0.30220000      -0.21110000       2.23600000
H       -2.79330000      -2.13920000       1.73410000
H       -1.87220000      -1.02650000       2.79850000
H       -1.72860000      -0.86060000      -1.05290000
H        0.04980000      -5.22910000       0.18840000
