23
Properties=species:S:1:pos:R:3 gdb_117705=T pbc="F F F"
C       -0.18580000       1.53130000      -0.07630000
C       -0.02390000       0.01150000       0.02240000
C        0.75110000      -0.56470000      -1.16830000
C        0.84610000      -2.09960000      -1.23340000
C        1.60660000      -2.51560000      -2.49810000
C        1.48710000      -2.68990000       0.02930000
O       -0.55370000      -2.52290000      -1.34260000
C       -0.87520000      -3.82220000      -1.40080000
O       -2.00830000      -4.19800000      -1.49580000
H        0.78670000       2.03570000      -0.11070000
H       -0.73550000       1.81260000      -0.98120000
H       -0.73530000       1.92730000       0.78300000
H        0.48910000      -0.23450000       0.95960000
H       -1.00870000      -0.46440000       0.06990000
H        0.27870000      -0.22700000      -2.09880000
H        1.77370000      -0.16610000      -1.17470000
H        2.62090000      -2.10580000      -2.47500000
H        1.69190000      -3.60240000      -2.58700000
H        1.10140000      -2.13450000      -3.38990000
H        0.85700000      -2.52090000       0.90510000
H        1.66150000      -3.76520000      -0.06540000
H        2.45690000      -2.21480000       0.20670000
H       -0.01010000      -4.50630000      -1.35320000
