23
Properties=species:S:1:pos:R:3 gdb_95842=T pbc="F F F"
C        0.01930000       1.60130000      -0.00700000
C        0.03250000       0.07070000      -0.04670000
C        0.75900000      -0.46160000      -1.29440000
C        0.79900000      -1.99570000      -1.33150000
C        1.42510000      -2.57100000      -0.05540000
C        0.70240000      -2.06460000       1.21820000
C        0.66330000      -0.51570000       1.22660000
C       -0.63810000      -2.63890000       1.33920000
C       -1.73960000      -3.11260000       1.43670000
H        1.03860000       2.00360000       0.04120000
H       -0.45820000       2.01620000      -0.90120000
H       -0.52600000       1.97340000       0.86700000
H       -1.00810000      -0.28040000      -0.08940000
H        0.27510000      -0.07420000      -2.19900000
H        1.78710000      -0.06940000      -1.30190000
H       -0.22090000      -2.38570000      -1.43750000
H        1.35960000      -2.33950000      -2.20790000
H        1.41330000      -3.66520000      -0.07660000
H        2.47640000      -2.26120000       0.01060000
H        1.27980000      -2.39390000       2.09210000
H        1.69650000      -0.15280000       1.31810000
H        0.12340000      -0.16610000       2.11320000
H       -2.70950000      -3.53440000       1.53030000
