21
Properties=species:S:1:pos:R:3 gdb_42145=T pbc="F F F"
C       -0.08880000       1.56720000       0.02370000
C        1.29460000       2.22300000       0.04680000
O        2.07180000       1.63760000       1.08180000
C        3.38890000       1.25240000       0.75510000
C        3.49730000       0.13940000      -0.29310000
O        2.71720000      -0.98710000       0.08660000
C        1.73570000      -1.36660000      -0.84370000
O        0.80180000      -0.36240000      -1.12510000
C       -0.00080000       0.04280000      -0.01210000
H       -0.65620000       1.85500000       0.91670000
H       -0.64060000       1.94150000      -0.84670000
H        1.77220000       2.09210000      -0.92950000
H        1.20220000       3.30380000       0.22680000
H        3.99490000       2.10920000       0.41340000
H        3.81890000       0.89600000       1.69670000
H        3.19020000       0.49950000      -1.28090000
H        4.55300000      -0.16010000      -0.36210000
H        2.17960000      -1.61890000      -1.81700000
H        1.26460000      -2.25640000      -0.40440000
H        0.45130000      -0.30910000       0.91870000
H       -1.00150000      -0.39930000      -0.11180000
