17
Properties=species:S:1:pos:R:3 gdb_32965=T pbc="F F F"
N       -0.03270000       1.94450000       0.68810000
H        0.89440000       1.61520000       0.43460000
H       -0.08160000       2.55890000       2.36590000
H       -0.38110000       2.48660000      -0.09530000
C       -0.92360000       0.80170000       0.98390000
C       -0.58040000       0.21820000       2.36340000
C       -0.79690000       1.19210000       3.49660000
N       -1.36110000       0.82580000       4.57810000
C       -1.52460000       1.74580000       5.62190000
C       -1.16810000       3.02380000       5.67240000
O       -0.90310000       4.14760000       5.83210000
O       -0.34220000       2.45230000       3.31710000
H       -1.95180000       1.17800000       0.98740000
H       -0.86710000       0.01160000       0.22300000
H       -1.17930000      -0.67150000       2.56370000
H        0.47380000      -0.09800000       2.35260000
H       -2.01140000       1.38330000       6.52140000
