19
Properties=species:S:1:pos:R:3 gdb_106610=T pbc="F F F"
O        0.02780000       1.38270000      -0.25920000
C        0.03340000       0.01950000       0.13710000
C       -1.37130000      -0.53960000       0.11950000
C       -1.74750000      -2.06340000       0.04510000
C       -3.08850000      -1.55230000      -0.59280000
C       -3.70610000      -0.76720000       0.58950000
C       -2.43090000      -0.01260000       1.11450000
C       -2.17690000      -0.47380000      -1.18930000
O       -2.01070000       0.06760000      -2.24750000
H       -0.33740000       1.40660000      -1.15300000
H        0.68180000      -0.58620000      -0.51610000
H        0.46570000      -0.01140000       1.14370000
H       -1.12390000      -2.62980000      -0.64950000
H       -1.84120000      -2.58620000       1.00010000
H       -3.73610000      -2.18400000      -1.19690000
H       -4.49820000      -0.08640000       0.26770000
H       -4.12650000      -1.44390000       1.33800000
H       -2.17970000      -0.28480000       2.14370000
H       -2.52280000       1.07420000       1.06400000
