25
Properties=species:S:1:pos:R:3 gdb_75538=T pbc="F F F"
C        0.00550000       1.54170000      -0.00280000
C        0.00390000       0.03100000      -0.01660000
C       -0.03100000      -0.62750000      -1.18020000
C       -0.02220000      -2.12330000      -1.34410000
C        0.38230000      -2.83690000      -0.05020000
C       -0.31420000      -2.18810000       1.14730000
C        0.05000000      -0.69510000       1.33260000
C        1.46410000      -0.56830000       1.94750000
C       -0.96540000      -0.07950000       2.31930000
H        0.84960000       1.94650000       0.56820000
H        0.07160000       1.93970000      -1.01880000
H       -0.90330000       1.94870000       0.45590000
H       -0.07540000      -0.04750000      -2.10110000
H       -1.02030000      -2.46060000      -1.66450000
H        0.65260000      -2.40120000      -2.16400000
H        0.13250000      -3.90210000      -0.10540000
H        1.47010000      -2.77930000       0.07370000
H       -1.40060000      -2.26910000       1.00730000
H       -0.07940000      -2.73020000       2.07160000
H        2.22410000      -1.03180000       1.31250000
H        1.74720000       0.47900000       2.08940000
H        1.49740000      -1.05390000       2.92960000
H       -0.99140000      -0.66630000       3.24430000
H       -0.70630000       0.94810000       2.58980000
H       -1.97600000      -0.07520000       1.89710000
