15
Properties=species:S:1:pos:R:3 gdb_116828=T pbc="F F F"
C       -0.00900000       1.42340000       0.01190000
O       -0.02240000       0.01290000      -0.04930000
C        0.63530000      -0.57090000       1.05300000
C        0.59850000      -2.02050000       0.95240000
C        0.58750000      -3.23040000       0.90210000
C        0.57190000      -4.58250000       0.84000000
C        0.56060000      -5.79650000       0.78890000
C        0.52720000      -7.23030000       0.69470000
O        1.01850000      -7.98080000       1.50770000
H        1.01730000       1.82210000       0.00700000
H       -0.53520000       1.78570000      -0.87320000
H       -0.52140000       1.79750000       0.91180000
H        1.68780000      -0.23890000       1.10630000
H        0.16370000      -0.26250000       2.00340000
H        0.00220000      -7.60970000      -0.20520000
