11
Properties=species:S:1:pos:R:3 gdb_21622=T pbc="F F F"
N        0.01480000       1.30640000       0.00800000
C       -0.04360000      -0.03440000       0.00090000
N       -1.20360000      -0.64120000       0.00400000
C       -1.18830000      -2.00790000      -0.00360000
O       -2.13580000      -2.75420000      -0.00270000
N        0.12870000      -2.56450000      -0.01420000
N        1.27040000      -1.89770000      -0.01690000
N        1.22990000      -0.62610000      -0.00950000
H        0.90970000       1.76290000       0.00560000
H       -0.83820000       1.83830000       0.01580000
H        0.22090000      -3.57180000      -0.02040000
