18
Properties=species:S:1:pos:R:3 gdb_8885=T pbc="F F F"
C        0.02230000       1.53810000      -0.02280000
C       -0.02790000       0.02300000       0.18520000
C       -1.44160000      -0.54240000      -0.05950000
O       -1.89860000      -0.20300000      -1.34270000
C       -1.49350000      -2.05430000       0.12330000
O       -1.87260000      -2.76210000      -0.79150000
C       -1.09520000      -2.69530000       1.44080000
O       -1.34090000      -4.07020000       1.43830000
H        1.03870000       1.91600000       0.12000000
H       -0.30520000       1.79490000      -1.03250000
H       -0.63240000       2.05530000       0.68740000
H        0.66680000      -0.47380000      -0.50300000
H        0.28940000      -0.22610000       1.20480000
H       -2.11750000      -0.11010000       0.70100000
H       -2.11660000      -1.04250000      -1.77630000
H       -0.02780000      -2.48010000       1.61630000
H       -1.64580000      -2.19710000       2.25450000
H       -1.63670000      -4.28020000       0.53930000
