21
Properties=species:S:1:pos:R:3 gdb_112860=T pbc="F F F"
C        0.28230000       1.44060000      -0.32510000
C        0.02470000      -0.03840000      -0.03680000
O        0.56410000      -0.85060000      -1.09230000
C        1.47410000      -1.82550000      -0.56850000
C        2.81790000      -1.64480000      -1.28440000
O        2.64960000      -1.69390000      -2.68510000
C        1.50330000      -1.57990000       0.92080000
C        2.33930000      -2.39980000       1.85050000
C        0.68610000      -0.56910000       1.20550000
H        1.35650000       1.64630000      -0.34920000
H       -0.14960000       1.71810000      -1.29110000
H       -0.17680000       2.06750000       0.44670000
H       -1.06560000      -0.20200000      -0.00190000
H        1.09080000      -2.83090000      -0.81070000
H        3.26550000      -0.69030000      -0.96060000
H        3.50670000      -2.45260000      -1.01340000
H        1.91390000      -1.09810000      -2.87470000
H        3.40740000      -2.30910000       1.61790000
H        2.19380000      -2.09630000       2.89020000
H        2.09120000      -3.46530000       1.76790000
H        0.49220000      -0.16070000       2.19040000
