21
Properties=species:S:1:pos:R:3 gdb_26245=T pbc="F F F"
C        0.07490000       1.22350000       0.55280000
N       -0.06030000       0.08060000      -0.34980000
C        1.19290000      -0.63670000      -0.51820000
C       -1.16500000      -0.74910000      -0.09240000
C       -1.27640000      -2.05070000       0.34450000
C       -2.66830000      -2.37150000       0.36350000
C       -3.37110000      -1.26650000      -0.05040000
C       -4.83580000      -1.03360000      -0.21440000
N       -2.44100000      -0.28140000      -0.32470000
H        0.80990000       1.92530000       0.14530000
H       -0.88010000       1.74550000       0.64550000
H        0.40000000       0.92790000       1.56570000
H        1.56690000      -1.08360000       0.42030000
H        1.06140000      -1.43620000      -1.25080000
H        1.95720000       0.05550000      -0.88590000
H       -0.46060000      -2.69440000       0.63270000
H       -3.10680000      -3.31200000       0.66260000
H       -5.20400000      -0.22250000       0.42740000
H       -5.10710000      -0.77730000      -1.24720000
H       -5.38520000      -1.93950000       0.05250000
H       -2.64090000       0.60250000      -0.76030000
