27
Properties=species:S:1:pos:R:3 gdb_102638=T pbc="F F F"
C       -0.64530000       1.15260000       0.33340000
C       -0.20880000      -0.28100000       0.02410000
C        0.62500000      -0.41860000      -1.25670000
C        1.03160000      -1.87680000      -1.50400000
C        1.92410000      -2.11960000      -2.73400000
C        3.33810000      -1.54780000      -2.55620000
C        1.99210000      -3.61890000      -3.05600000
O       -0.14300000       0.03470000      -2.37680000
C        0.34430000       1.19070000      -3.01860000
H        0.21780000       1.81460000       0.46910000
H       -1.25710000       1.55460000      -0.47890000
H       -1.23940000       1.19280000       1.25160000
H        0.37530000      -0.68290000       0.86160000
H       -1.09440000      -0.92110000      -0.07610000
H        1.52360000       0.20900000      -1.15910000
H        1.53400000      -2.26220000      -0.60610000
H        0.10600000      -2.45590000      -1.61680000
H        1.44810000      -1.61410000      -3.58370000
H        3.85020000      -2.02880000      -1.71350000
H        3.94510000      -1.71870000      -3.45150000
H        3.33110000      -0.47000000      -2.36650000
H        0.99500000      -4.03270000      -3.23930000
H        2.60310000      -3.80720000      -3.94530000
H        2.43710000      -4.17920000      -2.22450000
H        0.37290000       2.06220000      -2.34820000
H        1.35340000       1.04220000      -3.43210000
H       -0.33840000       1.41120000      -3.84430000
