18
Properties=species:S:1:pos:R:3 gdb_87889=T pbc="F F F"
C       -0.20830000       1.44680000       0.10970000
C       -0.00600000      -0.02060000      -0.04780000
N       -0.17220000      -0.70300000      -1.10540000
C        0.14430000      -2.09670000      -0.76470000
C        0.55020000      -2.03440000       0.71060000
C        0.26700000      -3.08580000       1.74290000
C        1.69310000      -2.79080000       1.29880000
O        2.35590000      -3.66660000       0.43790000
O        0.39800000      -0.66810000       1.08990000
H        0.72270000       1.92670000       0.42730000
H       -0.53580000       1.87370000      -0.83750000
H       -0.95760000       1.64580000       0.88230000
H       -0.73130000      -2.73340000      -0.93600000
H        0.95490000      -2.47700000      -1.39390000
H       -0.02570000      -2.76420000       2.73660000
H       -0.19220000      -4.00520000       1.39210000
H        2.32290000      -2.25300000       2.00730000
H        2.57430000      -4.46530000       0.92950000
