16
Properties=species:S:1:pos:R:3 gdb_29007=T pbc="F F F"
C       -0.03170000       1.51660000      -0.05000000
C       -0.00810000       0.00760000       0.01230000
N       -0.02720000      -0.61950000      -1.17100000
C       -0.00810000      -1.95400000      -1.18690000
C        0.03060000      -2.74720000      -0.04210000
C        0.05040000      -2.10500000       1.18420000
C        0.03120000      -0.70770000       1.22670000
C        0.05320000      -0.04040000       2.54970000
O        0.08500000      -0.63520000       3.60400000
H        0.85600000       1.95790000       0.41540000
H       -0.06300000       1.81900000      -1.09710000
H       -0.90640000       1.93250000       0.46100000
H       -0.02470000      -2.41450000      -2.17240000
H        0.04450000      -3.82820000      -0.11930000
H        0.08050000      -2.64790000       2.12260000
H        0.03860000       1.06790000       2.53080000
