17
Properties=species:S:1:pos:R:3 gdb_35710=T pbc="F F F"
C       -0.11650000      -1.25720000      -0.18660000
C       -0.05210000      -0.07270000       0.00670000
C        0.01560000       1.36400000       0.21300000
O        0.11520000       1.75470000       1.60240000
C        1.35910000       2.45330000       1.38220000
C        1.36120000       2.09340000      -0.11740000
C        2.50390000       1.26390000      -0.64130000
C        3.90010000       1.55980000      -0.29640000
O        3.21720000       0.44870000       0.28720000
H       -0.16640000      -2.30650000      -0.34390000
H       -0.85570000       1.83970000      -0.25690000
H        1.27470000       3.52050000       1.61560000
H        2.17690000       2.00680000       1.95680000
H        1.20650000       2.94510000      -0.78540000
H        2.30970000       0.77460000      -1.59670000
H        4.69630000       1.30710000      -0.99460000
H        4.12560000       2.37930000       0.38570000
