15
Properties=species:S:1:pos:R:3 gdb_31588=T pbc="F F F"
C       -0.04570000       1.38870000       0.05340000
O       -0.03080000      -0.03800000       0.04880000
C       -1.24110000      -0.60910000      -0.02170000
N       -2.40980000      -0.02520000      -0.08520000
C       -3.31910000      -1.06540000      -0.14090000
O       -4.66440000      -0.85800000      -0.21590000
C       -2.68670000      -2.26710000      -0.11020000
O       -3.07850000      -3.57020000      -0.13740000
N       -1.32860000      -1.96600000      -0.03220000
H        0.99860000       1.69660000       0.11270000
H       -0.50610000       1.77510000      -0.86110000
H       -0.60490000       1.76830000       0.91420000
H       -4.79190000       0.09680000      -0.21910000
H       -4.03990000      -3.57940000      -0.19220000
H       -0.57000000      -2.62450000       0.00730000
