14
Properties=species:S:1:pos:R:3 gdb_14589=T pbc="F F F"
O       -0.62460000       0.48880000       0.54660000
C       -0.11470000       1.50730000       0.16940000
C        1.33920000       1.59940000      -0.30510000
C        1.50140000       2.52060000      -1.41980000
C        1.57300000       3.27600000      -2.35490000
C        1.70090000       4.22940000      -3.44700000
C        2.34000000       5.54730000      -2.99960000
O        1.99810000       6.62270000      -3.40740000
H       -0.66340000       2.47360000       0.15210000
H        1.92920000       1.94460000       0.55800000
H        1.68650000       0.58870000      -0.54280000
H        2.34950000       3.81490000      -4.23410000
H        0.73860000       4.45750000      -3.91650000
H        3.16800000       5.42770000      -2.26750000
