21
Properties=species:S:1:pos:R:3 gdb_103828=T pbc="F F F"
C        0.22730000       1.21170000       0.00980000
C       -0.03500000      -0.28830000       0.11540000
O        0.56950000      -0.84110000       1.29650000
C       -1.50220000      -0.64810000       0.10080000
C       -2.30440000      -0.86240000      -1.17160000
C       -1.91340000      -2.04240000      -0.34370000
O       -0.93030000      -2.85430000      -0.92360000
C       -2.85480000      -2.81430000       0.54300000
O       -2.09800000      -3.45770000       1.56750000
H        1.30090000       1.41710000       0.04780000
H       -0.17290000       1.61280000      -0.92620000
H       -0.25640000       1.75280000       0.83380000
H        0.45530000      -0.80990000      -0.71150000
H        0.35960000      -0.25220000       2.02990000
H       -2.06400000      -0.22960000       0.93640000
H       -3.33840000      -0.53550000      -1.19000000
H       -1.78330000      -0.76930000      -2.11900000
H       -0.59290000      -3.40860000      -0.20690000
H       -3.62930000      -2.15260000       0.95900000
H       -3.34930000      -3.61830000      -0.01140000
H       -1.55360000      -2.77570000       1.98260000
