18
Properties=species:S:1:pos:R:3 gdb_60319=T pbc="F F F"
C        0.03950000       1.53530000       0.06460000
C       -0.06100000       0.01560000      -0.02880000
O        0.70960000      -0.63020000       0.98820000
C       -1.49170000      -0.47670000       0.16800000
N       -1.50780000      -1.92680000       0.15780000
C       -2.65840000      -2.62930000      -0.02390000
N       -3.77670000      -2.07730000      -0.32240000
C       -2.49610000      -4.07020000       0.12220000
N       -2.41360000      -5.21800000       0.23620000
H        1.07530000       1.86250000      -0.07490000
H       -0.56850000       2.01630000      -0.70830000
H       -0.29920000       1.88250000       1.04530000
H        0.28260000      -0.31830000      -1.02040000
H        1.63940000      -0.43550000       0.83670000
H       -1.89080000      -0.08380000       1.11470000
H       -2.13880000      -0.11390000      -0.63380000
H       -0.72310000      -2.37450000       0.60600000
H       -4.50110000      -2.77520000      -0.46850000
