20
Properties=species:S:1:pos:R:3 gdb_36942=T pbc="F F F"
C       -0.10080000       1.50030000       0.24990000
C       -0.20180000      -0.01230000       0.04960000
O        0.42960000      -0.38480000      -1.16600000
C        1.32760000      -1.45240000      -0.88600000
C        1.64080000      -1.25100000       0.59490000
O        0.40830000      -0.74450000       1.09370000
N        1.28120000       1.95300000       0.26440000
C        1.82420000       2.42360000      -1.00500000
C        1.48950000       3.38610000       0.07890000
H       -0.70550000       1.99440000      -0.53290000
H       -0.55760000       1.73420000       1.21830000
H       -1.26520000      -0.30030000       0.02980000
H        0.84500000      -2.42410000      -1.06580000
H        2.19780000      -1.35710000      -1.54070000
H        1.87360000      -2.17700000       1.12680000
H        2.44710000      -0.52190000       0.74000000
H        2.85790000       2.15610000      -1.20480000
H        1.17260000       2.39730000      -1.87550000
H        0.61090000       4.01300000      -0.06620000
H        2.27000000       3.83280000       0.68820000
