17
Properties=species:S:1:pos:R:3 gdb_125232=T pbc="F F F"
C        0.02560000       1.52550000       0.02640000
C       -0.04890000       0.02540000       0.00370000
C       -1.18880000      -0.69840000      -0.17210000
C       -1.14820000      -2.14450000      -0.17660000
O       -2.11990000      -2.87990000      -0.32830000
C        0.21580000      -2.70180000       0.02160000
C        0.36370000      -4.19100000       0.03340000
N        1.28240000      -1.97650000       0.18630000
N        1.12840000      -0.63690000       0.17520000
H        0.68120000       1.90100000      -0.76750000
H       -0.96630000       1.95490000      -0.11840000
H        0.41990000       1.88730000       0.98260000
H       -2.14170000      -0.20230000      -0.31070000
H       -0.00680000      -4.61210000      -0.90690000
H        1.40630000      -4.47400000       0.18430000
H       -0.25970000      -4.62380000       0.82260000
H        1.98950000      -0.13040000       0.30470000
