12
Properties=species:S:1:pos:R:3 gdb_131091=T pbc="F F F"
O        0.37810000       0.15860000      -0.41690000
C        0.43510000       1.34590000      -0.45180000
O        0.87560000       2.07910000       0.60370000
C        0.93070000       3.49520000       0.44990000
C        2.33930000       3.93970000       0.23350000
N        3.02570000       4.68750000       1.04740000
O        4.22580000       4.83040000       0.44920000
N        4.21570000       4.12460000      -0.75770000
N        3.08420000       3.59670000      -0.88080000
H        0.13630000       1.97290000      -1.31330000
H        0.30920000       3.81650000      -0.39490000
H        0.54400000       3.94600000       1.36490000
