14
Properties=species:S:1:pos:R:3 gdb_2428=T pbc="F F F"
O       -0.06060000       1.38310000       0.05370000
C        0.05250000       0.00540000       0.04780000
C        0.74890000      -0.95320000       1.01030000
N        0.07020000      -1.92090000       0.04530000
C       -1.14920000      -0.96620000      -0.06670000
C       -1.10850000      -1.02520000      -1.59750000
C        0.35410000      -0.97370000      -1.14390000
H        0.82010000       1.76660000      -0.02450000
H        1.84230000      -1.01550000       0.99000000
H        0.37210000      -1.02250000       2.03580000
H       -1.98750000      -1.06660000       0.62430000
H       -1.43980000      -1.96160000      -2.05290000
H       -1.48910000      -0.15210000      -2.13060000
H        1.27730000      -1.07710000      -1.71750000
