18
Properties=species:S:1:pos:R:3 gdb_64519=T pbc="F F F"
C        0.02860000       1.66580000       0.10980000
C        0.05820000       0.15060000       0.04960000
C       -1.31710000      -0.44660000       0.31750000
O       -2.35410000       0.16010000       0.24560000
C        0.70640000      -0.59440000      -1.11790000
C        2.20880000      -0.70370000      -0.77170000
C        2.37430000      -0.05050000       0.58700000
N        1.02140000      -0.60980000       0.98560000
C        1.20770000      -1.63410000      -0.16080000
H        0.89040000       2.11750000      -0.38410000
H       -0.88240000       2.02610000      -0.37430000
H        0.00230000       2.00090000       1.15240000
H       -1.29440000      -1.52540000       0.58230000
H        0.35140000      -0.72390000      -2.13310000
H        2.93650000      -0.91900000      -1.54430000
H        3.13730000      -0.54750000       1.19170000
H        2.48320000       1.03300000       0.68160000
H        1.11800000      -2.70660000      -0.07500000
