17
Properties=species:S:1:pos:R:3 gdb_24565=T pbc="F F F"
O       -0.11290000       1.34820000       0.04750000
C        0.87540000       2.26220000      -0.08630000
C        2.06770000       2.25840000      -0.70050000
C        2.93300000       1.27950000      -1.32150000
C        3.47260000       0.14020000      -0.83930000
C        3.26250000      -0.54400000       0.41220000
C        2.12340000      -0.93480000       1.02180000
C        0.74910000      -0.91610000       0.57090000
C       -0.11890000      -0.00300000       0.11060000
H        0.48790000       3.21070000       0.27180000
H        2.45700000       3.27360000      -0.78740000
H        3.36350000       1.63580000      -2.25730000
H        4.27750000      -0.28400000      -1.43960000
H        4.18360000      -0.88910000       0.88170000
H        2.26210000      -1.54430000       1.91480000
H        0.26590000      -1.88920000       0.66700000
H       -1.12170000      -0.33280000      -0.14180000
