19
Properties=species:S:1:pos:R:3 gdb_65490=T pbc="F F F"
O        0.36500000       1.51350000      -0.55220000
C        0.01770000       0.24930000      -0.01770000
C        0.13440000       0.09050000       1.54410000
C       -1.31340000      -0.41050000       1.55400000
C       -1.77490000      -1.73360000       2.09060000
C       -2.28740000      -0.44110000       2.68970000
C       -1.52820000       0.09240000       0.12280000
C        0.66520000      -0.83360000      -0.75020000
C        1.23860000      -1.70230000      -1.35280000
H        1.31070000       1.50890000      -0.73690000
H        0.91060000      -0.58170000       1.91680000
H        0.24760000       1.08000000       1.99730000
H       -2.45700000      -2.32200000       1.48490000
H       -1.07350000      -2.32350000       2.67250000
H       -1.93310000      -0.15900000       3.67630000
H       -3.31600000      -0.15710000       2.48980000
H       -1.98990000       1.08320000       0.08180000
H       -2.01930000      -0.57320000      -0.58960000
H        1.73150000      -2.47450000      -1.89020000
