16
Properties=species:S:1:pos:R:3 gdb_29044=T pbc="F F F"
N        0.02450000       1.35300000       0.00890000
C       -0.03390000       0.00890000       0.00140000
C       -1.24860000      -0.65860000       0.00470000
C       -1.53000000      -2.03250000      -0.00120000
C       -0.67080000      -3.10740000      -0.01170000
C        0.73630000      -3.06130000      -0.01930000
C        1.58960000      -1.98760000      -0.01860000
C        1.34820000      -0.57080000      -0.00990000
O        2.28680000       0.23780000      -0.01150000
H        0.96110000       1.73840000       0.00380000
H       -0.79420000       1.93330000       0.01420000
H       -2.12440000      -0.01130000       0.01310000
H       -2.59080000      -2.27280000       0.00350000
H       -1.12060000      -4.09530000      -0.01440000
H        1.22640000      -4.03310000      -0.02720000
H        2.65480000      -2.20300000      -0.02580000
