15
Properties=species:S:1:pos:R:3 gdb_123375=T pbc="F F F"
C        0.03560000      -1.17770000       0.05860000
C        0.04090000       0.01980000      -0.02390000
C        0.06550000       1.47120000      -0.14270000
N        1.35540000       2.00940000       0.28130000
C        1.63080000       3.34170000       0.10540000
N        2.84140000       3.87050000       0.03250000
C        2.57450000       5.20380000      -0.08020000
N        1.30190000       5.54180000      -0.09140000
N        0.69440000       4.31640000       0.02540000
H        0.02220000      -2.23710000       0.13630000
H       -0.17930000       1.75720000      -1.17960000
H       -0.72380000       1.89460000       0.49500000
H        2.15160000       1.42160000       0.08180000
H        3.35430000       5.94660000      -0.16220000
H       -0.30750000       4.26210000       0.08050000
