21
Properties=species:S:1:pos:R:3 gdb_106284=T pbc="F F F"
C       -0.71910000       1.57880000      -0.31390000
O       -0.53220000       0.17700000      -0.29210000
C       -1.68450000      -0.54610000      -0.10160000
C       -2.63170000      -0.55470000       1.14470000
C       -3.16770000      -1.62840000       0.14430000
O       -4.21400000      -2.51150000       0.31820000
C       -2.96870000      -0.58110000      -0.99890000
C       -1.69800000      -2.09970000      -0.04880000
C       -1.26910000      -2.95220000      -1.23180000
H        0.26290000       2.02890000      -0.47400000
H       -1.39010000       1.88490000      -1.12890000
H       -1.13100000       1.94730000       0.63610000
H       -2.20690000      -0.92630000       2.08050000
H       -3.26080000       0.32710000       1.29590000
H       -5.03040000      -2.00750000       0.40230000
H       -3.61660000       0.29950000      -0.95970000
H       -2.86820000      -0.95460000      -2.01780000
H       -1.25750000      -2.49190000       0.87520000
H       -1.67190000      -2.60860000      -2.18730000
H       -0.17750000      -2.95730000      -1.31570000
H       -1.59650000      -3.98700000      -1.08760000
