19
Properties=species:S:1:pos:R:3 gdb_67400=T pbc="F F F"
C       -0.19490000       1.50660000      -0.04760000
C       -0.01170000       0.02780000       0.00560000
C        0.02960000      -1.04860000      -1.04500000
C        1.31420000      -1.64290000      -0.47930000
C        0.92480000      -0.94210000       0.85130000
C       -0.34170000      -1.70190000       1.31920000
C       -1.03570000      -1.10730000       0.08940000
C       -2.42590000      -1.04470000      -0.19190000
C       -3.60850000      -0.98510000      -0.41410000
H        0.70640000       2.01260000      -0.41270000
H       -1.02030000       1.76190000      -0.72040000
H       -0.43240000       1.91820000       0.94000000
H       -0.29810000      -0.98410000      -2.07490000
H        1.43590000      -2.73180000      -0.45890000
H        2.19300000      -1.18230000      -0.93960000
H        1.68440000      -0.63310000       1.56620000
H       -0.27510000      -2.79230000       1.40710000
H       -0.76030000      -1.28230000       2.23740000
H       -4.65010000      -0.93910000      -0.61320000
