20
Properties=species:S:1:pos:R:3 gdb_12791=T pbc="F F F"
C        0.01960000       1.49490000      -0.00960000
C       -0.03930000      -0.01920000       0.03050000
C       -0.84030000      -0.65450000       1.13410000
C        0.68560000      -0.72680000       1.16250000
C        1.35370000      -2.01610000       0.86270000
C        1.11770000      -2.70770000      -0.25400000
C        0.15770000      -2.21920000      -1.30860000
C        0.05050000      -0.68170000      -1.33750000
H        0.93830000       1.84220000      -0.49700000
H       -0.82850000       1.90910000      -0.56840000
H       -0.00700000       1.92230000       0.99780000
H       -1.32830000       0.00240000       1.84710000
H       -1.37190000      -1.58130000       0.94850000
H        1.17580000      -0.09970000       1.90120000
H        2.04960000      -2.39810000       1.60510000
H        1.61010000      -3.66170000      -0.41940000
H        0.46760000      -2.57530000      -2.29790000
H       -0.83510000      -2.66110000      -1.14260000
H       -0.80610000      -0.38270000      -1.95430000
H        0.94350000      -0.28220000      -1.83720000
