20
Properties=species:S:1:pos:R:3 gdb_90965=T pbc="F F F"
C        0.03860000       1.48790000      -0.11250000
N       -0.05730000       0.04710000       0.04590000
C       -1.43550000      -0.46810000       0.27000000
C       -1.20650000      -1.37100000       1.47500000
C       -0.24000000      -0.65000000       2.45650000
O        0.42190000      -1.90950000       2.80500000
C        0.22790000      -1.99420000       1.34830000
C        0.68660000      -3.21470000       0.61720000
C        0.65570000      -0.50850000       1.17400000
H        1.08740000       1.77550000      -0.23710000
H       -0.50020000       1.79600000      -1.01420000
H       -0.37370000       2.05940000       0.74010000
H       -2.14070000       0.34460000       0.49490000
H       -1.81230000      -1.00460000      -0.60900000
H       -2.01820000      -1.97940000       1.87200000
H       -0.46300000       0.04570000       3.26530000
H        0.13600000      -4.10070000       0.94790000
H        0.52830000      -3.08460000      -0.45780000
H        1.75370000      -3.38510000       0.79060000
H        1.70500000      -0.22960000       1.26490000
