14
Properties=species:S:1:pos:R:3 gdb_25989=T pbc="F F F"
N       -0.15340000       1.34180000      -0.03850000
C        0.13300000       0.01760000      -0.03580000
O        1.24500000      -0.46060000       0.01520000
O       -1.03160000      -0.68910000      -0.12060000
C       -1.03680000      -2.05710000      -0.16630000
C       -2.12080000      -2.88700000      -0.24410000
N       -1.69020000      -4.19540000      -0.26930000
C       -0.38090000      -4.14240000      -0.20790000
N        0.07740000      -2.85640000      -0.14330000
H        0.60060000       1.98140000       0.13730000
H       -1.10370000       1.65800000       0.03930000
H       -3.16390000      -2.61820000      -0.28320000
H        0.29090000      -4.98720000      -0.20600000
H        1.01590000      -2.49190000      -0.08480000
