23
Properties=species:S:1:pos:R:3 gdb_103788=T pbc="F F F"
C        0.19130000       1.54530000       0.20700000
C       -0.19120000       0.11050000      -0.17800000
C        0.64090000      -0.46670000      -1.31290000
C        0.45930000       0.20040000      -2.66380000
C        2.00310000      -1.01580000      -0.98490000
C        0.87700000      -1.97990000      -1.34400000
C        0.32360000      -2.86530000      -0.36030000
C       -0.14770000      -3.62390000       0.45000000
C       -0.71450000      -4.54040000       1.42940000
H        1.24660000       1.60870000       0.49360000
H        0.02820000       2.24840000      -0.61590000
H       -0.40720000       1.89070000       1.05580000
H       -0.09490000      -0.53920000       0.69760000
H       -1.25160000       0.07720000      -0.46240000
H        0.76920000       1.25070000      -2.63660000
H        1.05590000      -0.29580000      -3.43570000
H       -0.59000000       0.17030000      -2.98020000
H        2.80600000      -0.89490000      -1.70470000
H        2.32130000      -1.00730000       0.05190000
H        0.93570000      -2.40490000      -2.34310000
H       -1.60930000      -5.03910000       1.03980000
H        0.00120000      -5.32070000       1.71300000
H       -1.00580000      -4.01310000       2.34490000
