18
Properties=species:S:1:pos:R:3 gdb_101423=T pbc="F F F"
O        0.11210000       1.40900000      -0.02030000
C        0.08680000       0.00080000       0.06900000
C       -1.35380000      -0.51830000       0.02730000
O       -2.00650000      -0.01550000      -1.14360000
C       -1.42980000      -2.04050000       0.10110000
C       -2.83510000      -2.71530000       0.08340000
N       -2.40400000      -3.43030000      -1.12750000
C       -1.21870000      -2.75670000      -1.26000000
O       -0.39930000      -2.69010000      -2.14190000
H       -0.53060000       1.63800000      -0.70380000
H        0.65990000      -0.47580000      -0.74450000
H        0.56240000      -0.27580000       1.01670000
H       -1.90760000      -0.07490000       0.86310000
H       -1.54350000      -0.38520000      -1.90860000
H       -0.77760000      -2.42720000       0.88890000
H       -3.07230000      -3.36630000       0.92860000
H       -3.64970000      -2.00720000      -0.09470000
H       -2.93960000      -3.93190000      -1.82160000
