15
Properties=species:S:1:pos:R:3 gdb_46859=T pbc="F F F"
N       -0.23490000       1.24570000      -0.34360000
C       -0.03770000       0.06640000       0.06410000
O        1.01500000      -0.25790000       0.87060000
C        1.35020000      -1.62190000       1.12310000
C        0.14200000      -2.48640000       1.40130000
N       -0.95530000      -1.82560000       2.08770000
C       -1.10900000      -2.17280000       0.64960000
C       -1.03420000      -1.02970000      -0.30490000
O       -1.68350000      -0.98640000      -1.31930000
H        0.50370000       1.86440000       0.00100000
H        1.91060000      -2.03610000       0.27330000
H        2.01750000      -1.59300000       1.98910000
H        0.35930000      -3.53180000       1.60930000
H       -1.48760000      -2.48870000       2.64450000
H       -1.78640000      -2.96940000       0.36030000
