20
Properties=species:S:1:pos:R:3 gdb_55741=T pbc="F F F"
C        0.02200000       1.54320000      -0.07100000
C        0.03780000       0.03270000       0.08250000
O        0.05670000      -0.49810000       1.16960000
C        0.02850000      -0.77580000      -1.21300000
C        0.04480000      -2.27320000      -1.00720000
C       -0.97390000      -3.18070000      -0.27540000
N        0.06560000      -4.20500000      -0.76550000
C        0.04130000      -3.39400000      -2.07230000
C        1.09850000      -3.16170000      -0.30220000
H        0.89100000       1.87730000      -0.64900000
H       -0.86790000       1.86120000      -0.62590000
H        0.03050000       2.01590000       0.91170000
H       -0.85430000      -0.47670000      -1.79640000
H        0.89040000      -0.46080000      -1.81890000
H       -1.03590000      -3.09990000       0.81100000
H       -1.96090000      -3.31570000      -0.72910000
H       -0.86840000      -3.54360000      -2.66220000
H        0.93800000      -3.52710000      -2.68550000
H        2.07570000      -3.27880000      -0.78140000
H        1.18710000      -3.07950000       0.78220000
