20
Properties=species:S:1:pos:R:3 gdb_109352=T pbc="F F F"
C       -0.19520000       1.65250000      -0.63720000
C        0.20500000       0.32650000       0.03470000
C        0.78640000      -0.66960000      -0.93390000
C        2.08140000      -0.99310000      -0.95400000
C        2.62830000      -1.96220000      -1.96230000
O        2.54270000      -1.49090000      -3.32400000
C        1.32840000      -1.18840000      -3.84310000
N        0.16740000      -1.10930000      -3.35350000
C       -0.16180000      -1.30310000      -1.94360000
H        0.68210000       2.15130000      -1.05970000
H       -0.90870000       1.49140000      -1.45130000
H       -0.65890000       2.32900000       0.08720000
H        0.92690000       0.52420000       0.83470000
H       -0.68250000      -0.11290000       0.51140000
H        2.77660000      -0.54130000      -0.25140000
H        3.69450000      -2.13880000      -1.81050000
H        2.11800000      -2.93330000      -1.90340000
H        1.46320000      -0.97970000      -4.90540000
H       -0.25550000      -2.37980000      -1.73140000
H       -1.16700000      -0.89400000      -1.80040000
