17
Properties=species:S:1:pos:R:3 gdb_77181=T pbc="F F F"
O        0.48560000       0.87670000       0.50310000
C        0.14910000      -0.37620000      -0.02500000
C       -1.38140000      -0.66350000      -0.22540000
N       -1.05730000      -0.97950000      -1.63430000
C        0.23560000      -0.47930000      -1.54500000
N        1.15400000      -0.09480000      -2.32350000
C       -1.99540000      -1.77730000       0.58170000
C       -2.62340000      -2.95520000      -0.03090000
O       -1.32180000      -3.03470000       0.54940000
H        1.12070000       1.26780000      -0.11010000
H        0.64800000      -1.19570000       0.50540000
H       -1.95870000       0.26030000      -0.10400000
H       -1.67750000      -0.86340000      -2.42440000
H        0.89430000      -0.16800000      -3.30820000
H       -2.32900000      -1.47360000       1.57560000
H       -3.41070000      -3.48600000       0.50230000
H       -2.64620000      -3.04080000      -1.11550000
