19
Properties=species:S:1:pos:R:3 gdb_91659=T pbc="F F F"
C       -0.08220000       1.55560000       0.04520000
C        0.07850000       0.03640000       0.02520000
C        1.04330000      -0.53630000      -1.07500000
C        1.98620000      -1.32790000      -0.14630000
O        1.05660000      -1.94420000       0.80440000
C        0.80520000      -0.57180000       1.25000000
C        2.28780000      -0.31670000       0.96020000
C        3.43920000      -0.12100000       1.82140000
O        2.99810000       0.89280000       0.88230000
H        0.88340000       2.05750000       0.15040000
H       -0.55060000       1.90800000      -0.87940000
H       -0.71960000       1.87260000       0.87830000
H       -0.90290000      -0.44020000      -0.05540000
H        0.53700000      -1.18690000      -1.79050000
H        1.57390000       0.24970000      -1.62080000
H        2.72180000      -2.01160000      -0.56800000
H        0.35060000      -0.49290000       2.23730000
H        3.30070000       0.13310000       2.87070000
H        4.39080000      -0.58920000       1.57630000
