19
Properties=species:S:1:pos:R:3 gdb_91210=T pbc="F F F"
C       -0.52980000       1.38480000       0.11360000
C        0.05530000      -0.01480000      -0.00390000
C        1.34720000      -0.22990000      -0.85980000
C        2.04790000      -0.84100000       0.36160000
O        2.72320000       0.19270000       1.15180000
C        1.64470000       0.32340000       2.00460000
N        1.51510000       0.97550000       3.06960000
C        0.76200000      -0.65030000       1.24470000
N        0.02650000      -1.66570000       1.93560000
H        0.22780000       2.11070000       0.42400000
H       -0.93790000       1.71250000      -0.84840000
H       -1.34000000       1.41800000       0.84990000
H       -0.71880000      -0.72010000      -0.32380000
H        1.21130000      -0.92610000      -1.69030000
H        1.83170000       0.67680000      -1.22970000
H        2.64660000      -1.74790000       0.29240000
H        2.36620000       1.49160000       3.30020000
H        0.35210000      -1.76210000       2.89240000
H       -0.95680000      -1.41930000       1.98260000
