16
Properties=species:S:1:pos:R:3 gdb_63598=T pbc="F F F"
C       -0.15250000       1.53920000      -0.07640000
C       -0.06060000       0.03530000       0.03400000
C       -1.18740000      -0.75100000      -0.59900000
O        1.24500000      -0.51680000      -0.16860000
C        0.69220000      -0.59870000       1.15380000
C        1.33500000       0.16170000       2.18660000
C        1.86380000       0.77540000       3.08440000
C        2.45910000       1.47370000       4.09410000
N        2.96310000       2.06960000       4.95490000
H        0.70070000       2.02440000       0.40030000
H       -0.17300000       1.83150000      -1.13120000
H       -1.07230000       1.90390000       0.39180000
H       -1.24950000      -0.51950000      -1.66750000
H       -1.02540000      -1.82600000      -0.49140000
H       -2.14690000      -0.48990000      -0.14180000
H        0.39670000      -1.60310000       1.45750000
