19
Properties=species:S:1:pos:R:3 gdb_82744=T pbc="F F F"
C       -0.03140000       1.48800000       0.04370000
C        0.00930000      -0.01540000       0.04910000
N        0.87600000      -0.72060000      -0.94340000
C        0.81870000      -1.85820000      -0.01920000
C       -0.67750000      -2.13960000       0.47690000
N       -0.22970000      -1.80550000       1.85370000
C        0.72520000      -0.91120000       1.18750000
C       -1.31310000      -0.81640000      -0.03110000
O       -2.30040000      -0.26950000       0.82610000
H        0.97220000       1.90320000       0.17250000
H       -0.43540000       1.86960000      -0.90160000
H       -0.67410000       1.85200000       0.85040000
H        0.43520000      -0.86830000      -1.85220000
H        1.51180000      -2.69050000      -0.12500000
H       -1.20860000      -3.08090000       0.32690000
H       -0.95390000      -1.31970000       2.38350000
H        1.56470000      -0.48740000       1.73630000
H       -1.68030000      -0.87280000      -1.06600000
H       -3.08910000      -0.81920000       0.77430000
