27
Properties=species:S:1:pos:R:3 gdb_122143=T pbc="F F F"
C       -0.58160000       1.66500000      -0.79440000
C       -0.54000000       0.14890000      -0.88680000
O       -1.76950000      -0.36940000      -0.42480000
C       -1.83730000      -1.77840000      -0.48880000
C       -3.18970000      -2.28740000       0.01700000
C       -3.25780000      -3.81370000      -0.20710000
C       -4.67470000      -4.39460000      -0.16790000
C       -3.44960000      -1.91860000       1.49470000
C       -3.96550000      -0.49500000       1.73390000
H        0.35650000       2.09530000      -1.15790000
H       -1.40310000       2.06310000      -1.39680000
H       -0.73040000       1.98400000       0.24120000
H       -0.36320000      -0.16960000      -1.92870000
H        0.29340000      -0.25320000      -0.28530000
H       -1.68240000      -2.11000000      -1.53040000
H       -1.02400000      -2.22540000       0.11220000
H       -3.96580000      -1.81670000      -0.60360000
H       -2.81070000      -4.05510000      -1.18020000
H       -2.63250000      -4.31460000       0.54470000
H       -4.65820000      -5.47680000      -0.33150000
H       -5.16750000      -4.21710000       0.79310000
H       -5.30260000      -3.94970000      -0.94790000
H       -4.17610000      -2.62520000       1.91290000
H       -2.52180000      -2.07720000       2.06180000
H       -3.25540000       0.24760000       1.36820000
H       -4.91660000      -0.33340000       1.21350000
H       -4.13950000      -0.31910000       2.80080000
