20
Properties=species:S:1:pos:R:3 gdb_82297=T pbc="F F F"
C        0.74910000       1.29810000      -0.27920000
C        0.03400000      -0.03250000      -0.04960000
O       -1.36300000       0.19970000       0.17200000
C        0.28220000      -1.04970000      -1.20540000
C        1.40580000      -1.94730000      -0.71630000
N        2.56880000      -1.19320000      -0.20050000
C        1.58060000      -1.75950000       0.74390000
C        0.53370000      -0.78380000       1.22550000
O        1.01610000       0.04230000       2.26580000
H        1.81910000       1.13930000      -0.41620000
H        0.34960000       1.78100000      -1.18070000
H        0.59790000       1.96860000       0.56990000
H       -1.66390000       0.83480000      -0.48620000
H       -0.62740000      -1.64270000      -1.34670000
H        0.51670000      -0.55370000      -2.15350000
H        1.57470000      -2.90870000      -1.19070000
H        3.38940000      -1.79350000      -0.20880000
H        1.88840000      -2.56510000       1.40200000
H       -0.32450000      -1.37800000       1.57820000
H        0.26750000       0.55040000       2.59600000
