20
Properties=species:S:1:pos:R:3 gdb_97067=T pbc="F F F"
C        0.11380000       1.39010000       0.26070000
N        0.07020000      -0.04830000       0.05170000
C       -1.03410000      -0.64990000       0.04340000
O       -2.25930000      -0.05160000       0.24780000
C       -3.30460000      -1.01410000       0.09560000
C       -2.63540000      -2.38180000       0.33160000
O       -3.27110000      -3.45390000      -0.33210000
C       -1.21560000      -2.13610000      -0.20950000
C       -1.05230000      -2.47020000      -1.70150000
H        0.57780000       1.60030000       1.23210000
H        0.76080000       1.83910000      -0.50070000
H       -0.86460000       1.88230000       0.23040000
H       -4.09420000      -0.77300000       0.81290000
H       -3.71960000      -0.97280000      -0.91970000
H       -2.57860000      -2.57140000       1.41320000
H       -4.08310000      -3.66570000       0.13810000
H       -0.46650000      -2.69020000       0.35950000
H       -1.76190000      -1.91580000      -2.32360000
H       -0.04190000      -2.20310000      -2.01940000
H       -1.21710000      -3.53570000      -1.87390000
