16
Properties=species:S:1:pos:R:3 gdb_106662=T pbc="F F F"
O        0.14850000       1.33600000      -0.35400000
C        0.03980000      -0.01130000       0.08630000
C       -1.37510000      -0.50450000       0.09800000
C       -2.13830000      -1.08320000      -1.05990000
C       -1.91020000      -1.92110000       0.21210000
O       -1.19680000      -3.09250000       0.22000000
C       -2.85890000      -1.38530000       1.28370000
O       -3.73460000      -1.81870000       1.97310000
N       -2.30980000      -0.08290000       1.15930000
H       -0.17180000       1.90020000       0.35710000
H        0.62310000      -0.61460000      -0.61570000
H        0.47600000      -0.14160000       1.08630000
H       -3.12480000      -0.70850000      -1.31690000
H       -1.53860000      -1.42290000      -1.90040000
H       -1.73750000      -3.78610000      -0.17420000
H       -2.91820000       0.72280000       1.04990000
