22
Properties=species:S:1:pos:R:3 gdb_99274=T pbc="F F F"
C       -0.87370000       1.17890000       0.76750000
N       -1.20430000      -0.17850000       0.39060000
C       -0.65310000      -0.79520000      -0.68180000
O        0.17260000      -0.30050000      -1.42980000
C       -1.13760000      -2.22840000      -0.91240000
O       -2.15760000      -2.58000000      -0.00310000
C       -2.45210000      -3.97440000       0.09210000
C       -3.27220000      -4.15510000       1.36390000
C       -3.18720000      -4.48420000      -1.14950000
H       -0.13360000       1.54500000       0.05440000
H       -1.75510000       1.82950000       0.73360000
H       -0.44890000       1.22120000       1.77690000
H       -1.88280000      -0.71020000       0.91290000
H       -1.46850000      -2.29210000      -1.95770000
H       -0.26440000      -2.89070000      -0.80590000
H       -1.50020000      -4.52190000       0.19470000
H       -4.21710000      -3.60740000       1.28860000
H       -3.49940000      -5.21230000       1.52810000
H       -2.72340000      -3.77860000       2.23130000
H       -4.12420000      -3.93500000      -1.28710000
H       -2.58430000      -4.36910000      -2.05450000
H       -3.42190000      -5.54760000      -1.04080000
