17
Properties=species:S:1:pos:R:3 gdb_39326=T pbc="F F F"
C        0.16320000       1.53090000       0.21190000
O        1.47410000       1.48560000      -0.39870000
C        1.38580000       0.06040000      -0.59720000
C        2.45130000      -0.75220000       0.09120000
O        2.60570000      -0.57070000       1.50100000
C        2.00300000      -1.77650000       1.04860000
C        0.51850000      -1.90310000       1.34350000
O       -0.13510000      -0.65360000       1.28490000
C       -0.02120000       0.01380000       0.04930000
H        0.20360000       1.84980000       1.25820000
H       -0.52930000       2.16560000      -0.35240000
H        1.39220000      -0.19100000      -1.66750000
H        3.38930000      -0.88640000      -0.44650000
H        2.59320000      -2.68360000       1.18250000
H        0.07230000      -2.63860000       0.65150000
H        0.36650000      -2.27000000       2.36340000
H       -0.82160000      -0.30270000      -0.63250000
