18
Properties=species:S:1:pos:R:3 gdb_97437=T pbc="F F F"
C        0.66560000       0.43080000      -0.48240000
N        0.79770000      -0.63040000       0.49980000
C       -0.16920000      -0.82520000       1.28650000
O       -0.19880000      -1.74180000       2.26600000
C        0.99840000      -2.45650000       2.60000000
C        1.26620000      -3.66280000       1.64820000
N        2.11700000      -3.41480000       0.48350000
C        1.83450000      -4.76860000       2.43360000
N        2.29130000      -5.61140000       3.07820000
H        0.78110000       0.01730000      -1.49010000
H       -0.29800000       0.95970000      -0.43160000
H        1.46780000       1.16320000      -0.34140000
H       -1.11500000      -0.27250000       1.27530000
H        1.85620000      -1.77770000       2.58630000
H        0.81990000      -2.80810000       3.61800000
H        0.28010000      -3.99370000       1.29430000
H        1.84000000      -2.51320000       0.09720000
H        3.07990000      -3.30750000       0.79100000
