15
Properties=species:S:1:pos:R:3 gdb_128913=T pbc="F F F"
N       -0.04360000      -1.17480000      -0.08070000
C       -0.05080000      -0.02020000      -0.03510000
C       -0.03460000       1.43920000       0.02440000
C        1.40250000       2.00990000       0.00510000
C        1.40880000       3.50680000       0.04320000
N        0.67520000       4.24170000      -0.80000000
N        0.96490000       5.48730000      -0.45180000
N        1.82230000       5.64360000       0.54420000
C        2.11980000       4.38720000       0.87900000
H       -0.59870000       1.83960000      -0.82340000
H       -0.55600000       1.76190000       0.93200000
H        1.96470000       1.62210000       0.85900000
H        1.91200000       1.65160000      -0.89600000
H        0.55000000       6.27680000      -0.92080000
H        2.81050000       4.17400000       1.67930000
