19
Properties=species:S:1:pos:R:3 gdb_99597=T pbc="F F F"
C       -0.13990000       1.47970000      -0.49160000
C       -0.02470000       0.01960000      -0.10190000
C        0.93600000      -0.84450000      -0.83490000
N        1.20050000      -0.45260000       0.56320000
C       -1.27690000      -0.63880000       0.48880000
C       -1.69910000      -0.03330000       1.85200000
O       -2.76230000      -0.74360000       2.44400000
C       -2.40890000      -0.58510000      -0.44150000
N       -3.32770000      -0.51520000      -1.14020000
H        0.78270000       1.82180000      -0.97000000
H       -0.96200000       1.63650000      -1.19730000
H       -0.32130000       2.11740000       0.38030000
H        0.72490000      -1.90010000      -0.98200000
H        1.52380000      -0.38740000      -1.62620000
H        1.89100000       0.29360000       0.59320000
H       -1.04790000      -1.69310000       0.67590000
H       -0.84360000      -0.12130000       2.52630000
H       -1.93830000       1.03260000       1.73230000
H       -3.55160000      -0.60810000       1.90730000
