15
Properties=species:S:1:pos:R:3 gdb_130995=T pbc="F F F"
O       -0.15600000       0.20340000       0.56340000
C        0.08460000       1.11760000      -0.17890000
C        1.38680000       1.89280000      -0.14790000
O        1.30930000       2.88810000      -1.15670000
C        2.38780000       3.68520000      -1.28530000
N        3.46580000       3.56180000      -0.52260000
N        4.28920000       4.53860000      -0.97770000
C        3.75130000       5.25390000      -1.99130000
C        2.49980000       4.73050000      -2.23090000
H       -0.63360000       1.46900000      -0.95230000
H        1.53380000       2.34010000       0.84390000
H        2.23200000       1.21390000      -0.32120000
H        5.19020000       4.65010000      -0.54780000
H        4.28640000       6.06580000      -2.45840000
H        1.77580000       5.04150000      -2.96400000
