17
Properties=species:S:1:pos:R:3 gdb_32288=T pbc="F F F"
C        0.04340000       1.55940000       0.10690000
C       -0.00860000       0.03240000      -0.08000000
C       -1.40490000      -0.52580000      -0.04240000
C       -2.05950000      -0.97080000      -1.13800000
N       -3.35590000      -1.47550000      -1.12910000
C       -3.92440000      -1.51180000       0.01020000
O       -3.39690000      -1.11870000       1.18600000
C       -2.09390000      -0.59780000       1.24060000
N       -1.59840000      -0.24010000       2.35070000
H        1.07900000       1.91030000       0.06780000
H       -0.51830000       2.07050000      -0.68150000
H       -0.37840000       1.84090000       1.07390000
H        0.45040000      -0.23960000      -1.03690000
H        0.57860000      -0.44170000       0.71380000
H       -1.58260000      -0.95260000      -2.11340000
H       -4.93650000      -1.88280000       0.14060000
H       -2.25730000      -0.39000000       3.11450000
