13
Properties=species:S:1:pos:R:3 gdb_9973=T pbc="F F F"
C       -0.03260000      -1.21830000      -0.03300000
C       -0.04600000      -0.01770000      -0.00470000
C       -0.02720000       1.43620000       0.01800000
C        1.42600000       2.01740000       0.03620000
C        1.41070000       3.47400000      -0.09470000
C        1.36100000       4.66660000      -0.21820000
C        2.14410000       1.60540000       1.25320000
N        2.70340000       1.28090000       2.20970000
H       -0.03100000      -2.28040000      -0.04610000
H       -0.52490000       1.84220000      -0.86880000
H       -0.56630000       1.81970000       0.89020000
H        1.96350000       1.58440000      -0.81710000
H        1.33290000       5.72360000      -0.32210000
