21
Properties=species:S:1:pos:R:3 gdb_117231=T pbc="F F F"
C       -2.71100000       1.84350000      -3.15800000
C       -2.05970000       1.18360000      -1.95740000
O       -2.74580000      -0.05750000      -1.71790000
C       -2.31680000      -0.79380000      -0.67280000
N       -1.36210000      -0.39040000       0.06520000
C       -3.07600000      -2.07070000      -0.49510000
C       -4.41250000      -2.29120000      -1.13360000
N       -3.26940000      -3.07820000      -1.54830000
C       -2.71980000      -2.87790000      -2.88490000
H       -2.22290000       2.80080000      -3.36380000
H       -2.62320000       1.21560000      -4.04950000
H       -3.77250000       2.03180000      -2.97310000
H       -0.99750000       0.97770000      -2.12370000
H       -2.12960000       1.80390000      -1.05830000
H       -1.16710000      -1.07010000       0.79720000
H       -2.88560000      -2.51550000       0.47930000
H       -5.18760000      -2.82110000      -0.58500000
H       -4.76410000      -1.50250000      -1.79470000
H       -2.81970000      -1.85520000      -3.26690000
H       -1.65880000      -3.14700000      -2.87610000
H       -3.23540000      -3.56210000      -3.56610000
