18
Properties=species:S:1:pos:R:3 gdb_53414=T pbc="F F F"
C       -0.02590000       1.48850000       0.05130000
C       -0.04990000       0.03390000       0.02100000
C       -0.06590000      -1.16920000       0.01550000
C       -0.10300000      -2.62470000      -0.04480000
O        0.72540000      -3.18210000       0.98510000
C        0.21000000      -4.44820000       1.38390000
C       -1.27020000      -4.41180000       1.06590000
N       -1.91710000      -3.18450000       1.57350000
C       -1.47630000      -3.25440000       0.17080000
H        0.66160000       1.85160000       0.82310000
H        0.30260000       1.90450000      -0.90760000
H       -1.01720000       1.89950000       0.27180000
H        0.25910000      -2.95370000      -1.03500000
H        0.68690000      -5.27160000       0.82740000
H        0.43020000      -4.56830000       2.44940000
H       -1.83390000      -5.33380000       0.97220000
H       -2.92380000      -3.32660000       1.61000000
H       -2.19720000      -3.24490000      -0.63900000
