17
Properties=species:S:1:pos:R:3 gdb_15144=T pbc="F F F"
O        0.45760000       0.51580000      -1.11650000
C        0.22750000       1.31740000      -0.23430000
N        1.12330000       1.70620000       0.70910000
C        2.48800000       1.20130000       0.73560000
C        3.42320000       1.92930000      -0.24380000
C        4.82430000       1.37590000      -0.18020000
C        6.01430000       2.22760000      -0.28480000
O        5.58940000       1.72260000       0.98230000
H       -0.75600000       1.81180000      -0.10430000
H        0.84780000       2.41460000       1.36950000
H        2.87210000       1.29510000       1.75490000
H        2.44970000       0.13720000       0.48360000
H        3.02680000       1.81420000      -1.25860000
H        3.44440000       2.99950000      -0.00920000
H        4.92750000       0.32890000      -0.47270000
H        6.94720000       1.81410000      -0.66510000
H        5.89240000       3.30110000      -0.42530000
