20
Properties=species:S:1:pos:R:3 gdb_90179=T pbc="F F F"
O       -0.03410000       1.45610000      -0.03520000
C        0.06000000       0.04150000      -0.03950000
C        0.71370000      -0.55230000       1.25890000
C       -0.04460000      -1.83310000       1.48910000
C       -0.78570000      -2.43060000       2.70020000
C       -2.10430000      -2.42750000       1.83680000
C       -1.28960000      -1.83040000       0.67430000
C       -1.38140000      -0.55030000      -0.11350000
N       -0.20790000      -2.79490000       0.37670000
H        0.85150000       1.81840000      -0.13780000
H        0.63630000      -0.28180000      -0.91970000
H        1.80080000      -0.65890000       1.15890000
H        0.52430000       0.14750000       2.08130000
H       -0.42200000      -3.40160000       3.04420000
H       -0.84230000      -1.74320000       3.54740000
H       -2.56800000      -3.39680000       1.63960000
H       -2.85590000      -1.73850000       2.22900000
H       -2.05840000       0.15250000       0.38540000
H       -1.72220000      -0.65280000      -1.14920000
H        0.31950000      -2.47090000      -0.43050000
