15
Properties=species:S:1:pos:R:3 gdb_130955=T pbc="F F F"
O       -0.27320000       0.01950000      -0.15920000
C       -0.00630000       1.17090000       0.05920000
C        1.35770000       1.79330000      -0.16480000
C        1.27470000       2.98190000      -1.13680000
N        2.52980000       3.71260000      -1.21290000
C        3.49820000       3.71800000      -2.14700000
N        4.46770000       4.51560000      -1.75650000
N        4.07380000       5.00250000      -0.55020000
N        2.91970000       4.53120000      -0.21210000
H       -0.77360000       1.87570000       0.45590000
H        1.72350000       2.17010000       0.79890000
H        2.04610000       1.02760000      -0.53010000
H        1.02800000       2.64570000      -2.14690000
H        0.50390000       3.68890000      -0.81740000
H        3.45910000       3.15420000      -3.06480000
