13
Properties=species:S:1:pos:R:3 gdb_131284=T pbc="F F F"
O        0.02620000       1.33660000       0.09790000
C        0.04100000       0.00760000      -0.02190000
N        0.05440000      -0.70520000      -1.12300000
C        0.06430000      -1.98310000      -0.63210000
N        0.05420000      -2.09410000       0.67910000
N        0.03070000      -0.77910000       1.07510000
C        0.05720000      -0.40960000       2.47080000
C        1.41830000      -0.32790000       3.02260000
N        2.48130000      -0.25120000       3.46600000
H        0.03070000       1.70480000      -0.79520000
H        0.07410000      -2.85240000      -1.27230000
H       -0.43270000       0.56130000       2.58620000
H       -0.51500000      -1.15510000       3.02850000
