16
Properties=species:S:1:pos:R:3 gdb_78143=T pbc="F F F"
N        0.05880000       1.31780000       0.04000000
C       -0.02290000      -0.03350000      -0.00540000
C       -1.13960000      -0.81360000      -0.10210000
C       -0.77650000      -2.22860000      -0.02090000
O       -1.50940000      -3.19560000       0.00490000
C        0.75000000      -2.29510000       0.00900000
C        1.46600000      -1.71940000      -1.19140000
O        0.88810000      -1.49370000      -2.42840000
C        1.22550000      -0.85030000       0.04020000
H        0.94800000       1.76320000      -0.11070000
H       -0.75740000       1.87590000      -0.14780000
H       -2.15990000      -0.46750000      -0.19990000
H        1.21790000      -3.08710000       0.58030000
H        2.49280000      -2.04360000      -1.33010000
H       -0.04270000      -1.27170000      -2.29180000
H        2.06310000      -0.50800000       0.63830000
