18
Properties=species:S:1:pos:R:3 gdb_121776=T pbc="F F F"
C        0.01760000       1.48730000       0.17670000
C       -0.05490000      -0.01690000      -0.09880000
C       -1.46090000      -0.56530000       0.08750000
O       -1.43190000      -1.96370000      -0.19930000
C       -2.68730000      -2.59180000      -0.10160000
C       -2.60620000      -3.93710000      -0.66780000
C       -2.56600000      -5.03660000      -1.14470000
C       -3.16140000      -2.64990000       1.30890000
N       -3.52370000      -2.65410000       2.40560000
H        1.03670000       1.85880000       0.03890000
H       -0.63520000       2.05020000      -0.49940000
H       -0.28550000       1.72090000       1.20290000
H        0.27280000      -0.23470000      -1.12140000
H        0.62100000      -0.56010000       0.57090000
H       -1.81090000      -0.39760000       1.11690000
H       -2.17020000      -0.06390000      -0.59170000
H       -3.44700000      -2.01680000      -0.66050000
H       -2.52210000      -6.01290000      -1.56200000
