18
Properties=species:S:1:pos:R:3 gdb_46937=T pbc="F F F"
O        0.05360000      -0.04350000       0.04520000
C       -0.03410000       1.16340000      -0.01900000
C       -1.37380000       1.86910000      -0.16520000
C       -1.25080000       3.25020000      -0.82700000
C       -0.06160000       4.02350000      -0.27810000
C        0.20750000       3.98520000       1.25540000
C        1.44990000       3.17820000       0.91250000
C        1.20350000       2.00680000       0.01610000
N        1.28300000       3.37200000      -0.56870000
H       -2.04570000       1.20010000      -0.70920000
H       -1.79530000       1.97030000       0.84370000
H       -1.11400000       3.13860000      -1.90970000
H       -2.17260000       3.82480000      -0.68200000
H       -0.03780000       5.03530000      -0.68630000
H        0.46090000       4.97170000       1.64780000
H       -0.53490000       3.53060000       1.91660000
H        2.41780000       3.27900000       1.39440000
H        2.09250000       1.42110000      -0.19940000
