15
Properties=species:S:1:pos:R:3 gdb_23564=T pbc="F F F"
O       -0.09540000       1.31240000       0.11170000
N        0.02240000      -0.07670000      -0.03910000
C       -1.10780000      -0.64360000      -0.07960000
C       -2.56530000      -0.27340000       0.06000000
O       -3.25130000      -0.92070000      -1.03220000
C       -2.91790000      -1.71460000       0.10570000
C       -1.45110000      -2.11440000      -0.06870000
C       -0.80730000      -3.24860000      -0.76050000
N       -0.76750000      -3.13750000       0.71150000
H        0.82500000       1.59710000       0.12420000
H       -3.02500000       0.59440000       0.51110000
H       -3.70650000      -2.22490000       0.64350000
H       -1.41280000      -4.06610000      -1.14110000
H        0.09510000      -3.03470000      -1.32660000
H        0.13580000      -2.77990000       1.01610000
