20
Properties=species:S:1:pos:R:3 gdb_63054=T pbc="F F F"
C       -0.15180000       1.61150000      -0.01430000
C        0.03230000       0.10270000       0.00640000
O       -1.22260000      -0.55450000      -0.14060000
C        1.09240000      -0.57890000      -0.89780000
C        2.50300000       0.04030000      -0.88310000
C        2.72000000      -0.66540000       0.46860000
C        2.04580000       0.01170000       1.67660000
C        0.72010000      -0.60440000       1.19470000
N        1.47480000      -1.53980000       0.23710000
H        0.78240000       2.15270000       0.15470000
H       -0.54870000       1.93440000      -0.98500000
H       -0.86950000       1.90870000       0.75660000
H       -1.55880000      -0.35610000      -1.02200000
H        0.71890000      -0.99900000      -1.83630000
H        3.12930000      -0.40110000      -1.66270000
H        2.60510000       1.12850000      -0.93060000
H        3.67940000      -1.15950000       0.63390000
H        2.36640000      -0.44720000       2.61530000
H        2.11950000       1.09840000       1.77900000
H        0.03920000      -1.03980000       1.92790000
