23
Properties=species:S:1:pos:R:3 gdb_122079=T pbc="F F F"
C        0.02590000       1.50740000       0.21420000
C       -0.07170000       0.01640000      -0.11780000
C       -1.46700000      -0.54080000       0.12680000
O       -1.46420000      -1.91820000      -0.20810000
C       -2.71680000      -2.56590000      -0.05890000
C       -2.59860000      -3.95280000      -0.70930000
C       -2.29860000      -3.87720000      -2.20730000
C       -3.12160000      -2.66730000       1.35140000
C       -3.44910000      -2.76230000       2.50440000
H        1.03660000       1.88450000       0.03380000
H       -0.66330000       2.09960000      -0.39810000
H       -0.21730000       1.69900000       1.26510000
H        0.19720000      -0.15860000      -1.16600000
H        0.64100000      -0.55540000       0.48730000
H       -1.75780000      -0.40480000       1.17960000
H       -2.21000000      -0.00480000      -0.48920000
H       -3.49030000      -1.98790000      -0.59620000
H       -1.80760000      -4.50030000      -0.18580000
H       -3.53430000      -4.49210000      -0.52820000
H       -2.19510000      -4.87950000      -2.63310000
H       -3.10440000      -3.36720000      -2.74740000
H       -1.37170000      -3.32820000      -2.38750000
H       -3.74090000      -2.84310000       3.52240000
