18
Properties=species:S:1:pos:R:3 gdb_9360=T pbc="F F F"
C        0.06650000       1.39850000      -0.17440000
N       -0.06740000       0.00330000       0.19920000
C       -1.27870000      -0.64220000       0.03610000
O       -2.31530000      -0.05840000      -0.23610000
N       -1.20900000      -2.00950000       0.20760000
C       -2.42580000      -2.79260000       0.31230000
C       -2.13920000      -4.24140000      -0.04070000
O       -1.15290000      -4.70980000       0.87550000
H        0.79160000       1.89480000       0.47760000
H        0.38240000       1.53300000      -1.21820000
H       -0.90950000       1.86830000      -0.05200000
H        0.76470000      -0.56280000       0.14840000
H       -0.42130000      -2.39690000       0.70470000
H       -2.85310000      -2.74840000       1.32530000
H       -3.16160000      -2.36660000      -0.37230000
H       -3.06700000      -4.82780000       0.03700000
H       -1.77580000      -4.30360000      -1.07690000
H       -0.87840000      -5.59050000       0.60530000
