27
Properties=species:S:1:pos:R:3 gdb_60407=T pbc="F F F"
C       -0.06560000       1.51710000       0.28900000
C       -0.06760000       0.00710000       0.01140000
C       -1.50650000      -0.51640000      -0.09680000
C        0.73590000      -0.36220000      -1.24940000
C        2.24130000      -0.07430000      -1.17680000
C        2.99860000      -0.53510000      -2.41570000
C        2.78170000       0.20930000      -3.76710000
C        4.29910000       0.05310000      -4.05350000
C        4.51560000      -0.21460000      -2.53980000
H        0.94430000       1.90600000       0.44790000
H       -0.50730000       2.06740000      -0.55100000
H       -0.65350000       1.75150000       1.18280000
H        0.40890000      -0.49390000       0.86720000
H       -2.02880000      -0.05150000      -0.94170000
H       -1.52750000      -1.60070000      -0.25030000
H       -2.08060000      -0.29430000       0.80910000
H        0.59610000      -1.43360000      -1.44980000
H        0.30440000       0.16360000      -2.11350000
H        2.41630000       1.00080000      -1.03870000
H        2.66330000      -0.56950000      -0.29020000
H        2.83920000      -1.61090000      -2.56450000
H        2.07730000      -0.21860000      -4.48490000
H        2.51030000       1.25750000      -3.59890000
H        4.50730000      -0.83650000      -4.65540000
H        4.82280000       0.90140000      -4.50080000
H        4.76860000       0.70530000      -2.00150000
H        5.22860000      -0.99110000      -2.25050000
