19
Properties=species:S:1:pos:R:3 gdb_39356=T pbc="F F F"
C       -0.00550000       1.55000000       0.31220000
C        1.25810000       0.76760000      -0.03110000
C        2.27990000       0.39200000       1.03780000
C        1.66990000      -0.11060000       2.38060000
C        0.60040000      -1.16740000       2.17010000
C       -0.19820000      -0.98970000       1.12800000
C       -1.17240000      -1.65680000       0.18430000
O       -0.87800000      -0.63870000      -0.82560000
C       -0.06210000       0.06900000       0.11480000
H       -0.15710000       1.96550000       1.30390000
H       -0.41420000       2.14930000      -0.49520000
H        1.65130000       0.92890000      -1.03020000
H        2.91710000      -0.40320000       0.63080000
H        2.93670000       1.24380000       1.24980000
H        2.47830000      -0.50970000       3.00130000
H        1.26410000       0.74330000       2.93900000
H        0.55310000      -2.03300000       2.82280000
H       -0.91240000      -2.66440000      -0.15870000
H       -2.23050000      -1.63000000       0.47320000
