24
Properties=species:S:1:pos:R:3 gdb_102301=T pbc="F F F"
C       -0.09080000       1.59890000      -0.08400000
C        0.07000000       0.07840000      -0.03390000
C        0.73470000      -0.44090000       1.26290000
C        0.76990000      -1.98630000       1.31160000
C        1.38730000      -2.60940000       2.57630000
C        0.60510000      -2.25290000       3.84860000
C        1.48790000      -4.13220000       2.41140000
C        2.08590000       0.11450000       1.40600000
N        3.15400000       0.54670000       1.50490000
H        0.87870000       2.10290000      -0.02720000
H       -0.57540000       1.90570000      -1.01530000
H       -0.70620000       1.96050000       0.74710000
H       -0.91080000      -0.40490000      -0.11060000
H        0.65760000      -0.26640000      -0.89250000
H        0.14940000      -0.07040000       2.11420000
H       -0.26410000      -2.33850000       1.20100000
H        1.31710000      -2.34310000       0.43070000
H        2.40620000      -2.21380000       2.68080000
H       -0.43540000      -2.59350000       3.77870000
H        1.05180000      -2.73420000       4.72430000
H        0.59470000      -1.17600000       4.04290000
H        0.49410000      -4.58300000       2.30150000
H        2.07610000      -4.40120000       1.52790000
H        1.96420000      -4.59060000       3.28380000
