20
Properties=species:S:1:pos:R:3 gdb_12511=T pbc="F F F"
C        0.01910000       1.58440000      -0.12290000
C       -0.02790000       0.07610000      -0.00270000
C       -1.21090000      -0.55940000      -0.02680000
C       -1.46250000      -2.03960000       0.07400000
C       -0.48840000      -2.91880000      -0.72920000
C        0.89380000      -3.08120000      -0.09360000
C        1.68280000      -1.82960000       0.16160000
C        1.29210000      -0.54680000       0.17640000
H        0.61810000       1.89470000      -0.98830000
H       -0.97980000       2.01380000      -0.23130000
H        0.48960000       2.03580000       0.75990000
H       -2.10070000       0.05710000      -0.13730000
H       -1.44680000      -2.35410000       1.12870000
H       -2.48340000      -2.23690000      -0.27240000
H       -0.92550000      -3.91690000      -0.85030000
H       -0.38140000      -2.49960000      -1.73620000
H        0.80110000      -3.63330000       0.85470000
H        1.49950000      -3.73710000      -0.73510000
H        2.73860000      -2.01050000       0.35940000
H        2.08310000       0.17860000       0.36420000
