14
Properties=species:S:1:pos:R:3 gdb_24909=T pbc="F F F"
N       -0.02990000       1.22010000       0.00720000
C       -0.02930000      -0.03290000       0.00080000
C       -1.26290000      -0.95990000       0.00270000
C       -0.59470000      -2.30020000      -0.00770000
C        0.73790000      -2.08780000      -0.01390000
N        1.36340000      -3.29530000      -0.02360000
C        0.32190000      -4.21810000      -0.02240000
N       -0.86360000      -3.64800000      -0.01320000
O        1.17180000      -0.79780000      -0.00970000
H        0.91880000       1.59650000       0.00390000
H       -1.87310000      -0.75050000       0.88780000
H       -1.88260000      -0.74150000      -0.87360000
H        2.35000000      -3.48990000      -0.02990000
H        0.51730000      -5.27890000      -0.02880000
