19
Properties=species:S:1:pos:R:3 gdb_103417=T pbc="F F F"
C       -0.05060000       1.56150000      -0.08870000
C        0.00580000       0.04470000      -0.01180000
C        1.04990000      -0.66590000      -0.88680000
O        2.33240000      -0.16450000      -0.50030000
C        1.76240000      -1.21460000       0.28180000
C        0.74710000      -0.59970000       1.24950000
O        1.30360000       0.27460000       2.19390000
C       -0.10270000      -1.65100000       1.95140000
O       -1.08770000      -0.93280000       2.69090000
H        0.95090000       1.98410000       0.00990000
H       -0.47950000       1.88950000      -1.04190000
H       -0.67310000       1.96570000       0.71580000
H       -0.98900000      -0.39580000      -0.13060000
H        0.95430000      -1.06770000      -1.88900000
H        2.35170000      -2.11750000       0.40450000
H        0.59990000       0.45490000       2.83150000
H       -0.56300000      -2.33320000       1.22210000
H        0.53870000      -2.24110000       2.62280000
H       -1.51130000      -1.53500000       3.30870000
