20
Properties=species:S:1:pos:R:3 gdb_104231=T pbc="F F F"
C       -0.07020000       1.57830000       0.10260000
C       -0.03320000       0.04800000       0.06600000
C        0.75930000      -0.55860000       1.22610000
O        0.22490000      -0.19420000       2.48420000
C        1.05850000      -2.07320000       1.11920000
O        2.48810000      -1.79160000       0.96120000
C        2.27540000      -0.43930000       1.14200000
N        3.07220000       0.51820000       1.26070000
C        4.50710000       0.26720000       1.20880000
H        0.94090000       1.99470000       0.07610000
H       -0.62870000       1.97330000      -0.75060000
H       -0.56210000       1.92960000       1.01450000
H       -1.05210000      -0.35620000       0.11420000
H        0.40460000      -0.29820000      -0.87830000
H        0.68380000       0.60500000       2.76650000
H        0.86550000      -2.62880000       2.03850000
H        0.66510000      -2.59610000       0.24480000
H        4.77210000      -0.79630000       1.21300000
H        4.92170000       0.72660000       0.30430000
H        4.98510000       0.75600000       2.06390000
