16
Properties=species:S:1:pos:R:3 gdb_125244=T pbc="F F F"
C        0.32710000       1.43370000      -0.03010000
C        0.09650000      -0.04170000      -0.04990000
C        0.37810000      -1.00470000      -0.99870000
C       -0.06930000      -2.22030000      -0.43380000
C       -0.04950000      -3.60500000      -1.02530000
C        1.25180000      -3.97240000      -1.58720000
N        2.27470000      -4.25460000      -2.04400000
N       -0.59070000      -2.03850000       0.77480000
N       -0.48210000      -0.71050000       0.98220000
H        0.98270000       1.73080000       0.79620000
H        0.80100000       1.74960000      -0.96120000
H       -0.61090000       1.99070000       0.07440000
H        0.85170000      -0.85140000      -1.95500000
H       -0.32150000      -4.32230000      -0.24510000
H       -0.79840000      -3.70070000      -1.82180000
H       -0.80980000      -0.32850000       1.85360000
