22
Properties=species:S:1:pos:R:3 gdb_101130=T pbc="F F F"
C       -1.79430000       1.39250000      -0.80170000
O       -1.73080000       0.39400000       0.18850000
C       -0.95290000      -0.74800000      -0.16380000
C        0.54850000      -0.47270000      -0.02800000
C       -1.42680000      -1.86200000       0.72720000
C       -1.27740000      -1.94210000       2.25870000
C       -1.13000000      -3.49630000       2.13260000
C       -1.30310000      -3.35820000       0.61340000
N       -2.55190000      -2.67750000       0.28280000
H       -2.48830000       2.15720000      -0.44300000
H       -0.82140000       1.87120000      -0.98970000
H       -2.17140000       0.99380000      -1.75650000
H       -1.18120000      -1.04090000      -1.20040000
H        0.79230000      -0.15820000       0.99100000
H        1.12460000      -1.37260000      -0.26460000
H        0.86910000       0.31800000      -0.71190000
H       -0.36830000      -1.47190000       2.63910000
H       -2.13010000      -1.55860000       2.82700000
H       -0.13620000      -3.84220000       2.42730000
H       -1.87850000      -4.11670000       2.63740000
H       -0.84280000      -3.97280000      -0.15290000
H       -3.26620000      -2.79490000       0.99990000
