19
Properties=species:S:1:pos:R:3 gdb_120416=T pbc="F F F"
C       -0.30180000       1.30560000       0.01110000
O        0.02840000      -0.06310000       0.06670000
C        0.57740000      -0.54580000      -1.13390000
C        0.83170000      -2.02690000      -0.97080000
O       -0.40600000      -2.81740000      -1.06130000
C        0.06100000      -3.52280000      -2.13990000
O       -0.50560000      -4.36010000      -2.76560000
C        1.42540000      -2.82510000      -2.15910000
C        1.83460000      -2.13700000      -3.45700000
H        0.58240000       1.93070000      -0.19160000
H       -1.05480000       1.51180000      -0.76510000
H       -0.71340000       1.57960000       0.98490000
H       -0.10500000      -0.36900000      -1.98080000
H        1.53140000      -0.03810000      -1.36420000
H        1.30720000      -2.21180000      -0.00450000
H        2.21170000      -3.51240000      -1.83280000
H        1.06390000      -1.45200000      -3.82090000
H        2.76370000      -1.57360000      -3.32930000
H        2.00030000      -2.88960000      -4.23280000
