18
Properties=species:S:1:pos:R:3 gdb_37110=T pbc="F F F"
C       -0.00430000       1.52370000      -0.19190000
C        1.29380000       0.80870000       0.06690000
C       -0.03530000       0.04830000       0.09350000
C        0.45290000      -0.78520000      -1.12960000
N        0.79130000       0.11050000      -2.26980000
C        1.74430000      -0.04350000      -1.15890000
C        2.87930000      -1.05280000      -1.22450000
C        2.12980000      -2.37910000      -1.32610000
C        0.80040000      -2.22370000      -1.22280000
H       -0.34040000       2.14150000       0.63570000
H       -0.23960000       1.90180000      -1.17840000
H        1.95670000       1.06660000       0.88350000
H       -0.56740000      -0.38180000       0.93190000
H        1.08890000      -0.47400000      -3.04800000
H        3.56580000      -0.89290000      -2.06630000
H        3.49720000      -1.01260000      -0.31840000
H        2.63500000      -3.32100000      -1.51910000
H        0.07430000      -3.02940000      -1.23910000
