18
Properties=species:S:1:pos:R:3 gdb_123727=T pbc="F F F"
C       -0.05080000       1.50130000      -0.11540000
C        1.49950000       1.49900000      -0.07220000
C        1.44260000       0.08820000       0.59950000
C       -0.02150000      -0.03880000       0.06550000
C        2.44250000      -0.93530000       0.21600000
C        3.30320000      -1.72340000       0.92040000
C        3.97050000      -2.47380000      -0.08240000
N        3.55680000      -2.17180000      -1.28780000
O        2.58270000      -1.19180000      -1.10060000
H       -0.47980000       2.00370000       0.75630000
H       -0.52970000       1.89450000      -1.01410000
H        1.93350000       1.43110000      -1.07260000
H        2.00540000       2.29220000       0.48240000
H        1.44640000       0.18200000       1.68850000
H       -0.75450000      -0.49800000       0.73230000
H       -0.03670000      -0.56070000      -0.89420000
H        3.43860000      -1.76160000       1.98830000
H        4.73990000      -3.22470000       0.03270000
