24
Properties=species:S:1:pos:R:3 gdb_103992=T pbc="F F F"
C        0.02110000       1.50590000       0.20940000
C       -0.11490000       0.01160000      -0.10560000
C        0.69610000      -0.46920000      -1.31420000
C        0.24910000       0.18450000      -2.62250000
C        2.27180000      -0.43660000      -1.17280000
C        2.28610000      -1.95200000      -1.36340000
N        1.48440000      -2.50350000      -0.23850000
C        0.80220000      -2.01710000      -1.46480000
C       -0.10680000      -2.91540000      -2.24780000
H        1.06800000       1.78500000       0.37250000
H       -0.36770000       2.13650000      -0.59660000
H       -0.53220000       1.76050000       1.11890000
H        0.20040000      -0.57500000       0.76250000
H       -1.17490000      -0.22590000      -0.27540000
H        0.43650000       1.26260000      -2.60850000
H        0.79210000      -0.23060000      -3.47900000
H       -0.82250000       0.03450000      -2.79940000
H        2.75210000       0.11840000      -1.98240000
H        2.66640000      -0.09660000      -0.21170000
H        3.04520000      -2.55900000      -1.84380000
H        1.52690000      -3.52050000      -0.31080000
H       -1.06080000      -3.06830000      -1.72880000
H       -0.32930000      -2.50140000      -3.23620000
H        0.35190000      -3.89980000      -2.39540000
