13
Properties=species:S:1:pos:R:3 gdb_42150=T pbc="F F F"
O        0.08720000      -0.01760000      -0.40750000
C       -0.04720000       1.14990000      -0.11690000
C        1.12690000       1.99810000       0.17240000
N        2.04730000       2.66030000       0.39890000
C       -1.29350000       1.84200000      -0.01510000
C       -2.34550000       2.43370000       0.07980000
C       -3.58350000       3.13510000       0.16650000
C       -3.77170000       4.13280000       1.27590000
N       -3.62070000       4.59690000      -0.09460000
H       -4.45510000       2.60250000      -0.20250000
H       -4.76820000       4.23790000       1.69420000
H       -2.95360000       4.26210000       1.97770000
H       -2.67450000       4.93770000      -0.25060000
