12
Properties=species:S:1:pos:R:3 gdb_6060=T pbc="F F F"
N       -0.04260000       1.31380000      -0.11820000
C        0.06700000      -0.02650000       0.09340000
O        1.12020000      -0.60680000       0.26680000
C       -1.21650000      -0.72490000       0.08570000
C       -2.24700000      -1.35050000       0.09230000
C       -3.53030000      -2.04900000       0.11710000
N       -3.42480000      -3.38700000      -0.11050000
O       -4.57990000      -1.47070000       0.31640000
H        0.79540000       1.87200000      -0.09570000
H       -0.93820000       1.76290000      -0.20140000
H       -2.53100000      -3.83510000      -0.21530000
H       -4.26230000      -3.94550000      -0.07790000
