20
Properties=species:S:1:pos:R:3 gdb_26654=T pbc="F F F"
C       -0.05080000       1.51810000       0.12200000
C        0.00210000       0.03480000      -0.03120000
C        0.01240000      -0.78250000      -1.13740000
C       -0.02970000      -0.36570000      -2.57610000
C        0.07160000      -2.15170000      -0.68440000
C        0.10160000      -3.38150000      -1.53900000
C        0.09450000      -2.09470000       0.68680000
O        0.14760000      -3.04550000       1.65910000
N        0.05290000      -0.79060000       1.08560000
H        0.82610000       1.91440000       0.65170000
H       -0.08220000       2.00070000      -0.85710000
H       -0.93940000       1.84920000       0.67630000
H        0.85300000      -0.71320000      -3.12830000
H       -0.90560000      -0.77600000      -3.09510000
H       -0.07060000       0.72180000      -2.68250000
H        0.97400000      -3.40590000      -2.20450000
H        0.14280000      -4.29800000      -0.93700000
H       -0.78720000      -3.46740000      -2.17710000
H        0.17520000      -3.90720000       1.23220000
H        0.06100000      -0.49340000       2.04540000
