16
Properties=species:S:1:pos:R:3 gdb_37004=T pbc="F F F"
C       -0.05520000       1.52940000      -0.04290000
C        1.23490000       1.88670000      -0.00860000
C        1.93720000       0.56050000       0.11440000
C        3.34770000       0.03360000       0.09610000
C        3.16200000      -1.29240000       0.11650000
C        1.64840000      -1.45460000       0.13920000
C        1.08340000      -0.35880000       1.07410000
C       -0.02200000       0.01050000       0.05640000
N        1.15330000      -0.38920000      -0.87350000
H       -0.93330000       2.15060000      -0.14860000
H        1.68710000       2.86510000      -0.07440000
H        4.26180000       0.60690000       0.05320000
H        3.89610000      -2.08530000       0.09070000
H        1.20620000      -2.44760000       0.06200000
H        1.05330000      -0.33100000       2.17280000
H       -0.94400000      -0.56180000      -0.04450000
