19
Properties=species:S:1:pos:R:3 gdb_57945=T pbc="F F F"
C       -0.71090000       1.12190000       0.99470000
N       -0.11180000       0.11180000       0.14580000
C        1.29150000      -0.14190000       0.46290000
C       -0.49950000       0.09710000      -1.19850000
N       -0.04510000      -1.05450000      -1.87880000
H       -0.40850000      -1.10630000      -2.82080000
H       -0.25690000      -1.90590000      -1.36970000
C       -1.23420000       1.04660000      -1.80180000
C        2.55240000      -1.39840000      -3.40380000
O        3.27440000      -1.34210000      -2.49420000
O        1.86110000      -1.46560000      -4.33750000
H       -0.30950000       2.13420000       0.81470000
H       -1.79100000       1.14690000       0.83470000
H       -0.51480000       0.86690000       2.04100000
H        1.71350000      -0.86050000      -0.23730000
H        1.89650000       0.77900000       0.41080000
H        1.37270000      -0.54200000       1.47930000
H       -1.62640000       0.88690000      -2.79830000
H       -1.44660000       1.99540000      -1.33260000
