23
Properties=species:S:1:pos:R:3 gdb_78780=T pbc="F F F"
C       -0.13720000       1.59060000      -0.27580000
C        0.14920000       0.09070000      -0.27130000
C        0.88380000      -0.64770000      -1.39510000
C        1.30880000      -1.73530000      -0.44260000
C        2.36870000      -0.83150000      -1.00840000
C        2.61790000      -0.18040000       0.35700000
C        3.59380000      -1.01970000       1.19530000
C        3.04560000       1.28900000       0.42600000
C        1.14770000      -0.63220000       0.68750000
H        0.71130000       2.20080000      -0.58370000
H       -0.96040000       1.80620000      -0.96670000
H       -0.45250000       1.92960000       0.71800000
H       -0.81160000      -0.42380000      -0.13740000
H        0.57020000      -0.77090000      -2.42520000
H        1.16780000      -2.80570000      -0.46220000
H        3.10410000      -1.07670000      -1.76670000
H        4.61040000      -0.96120000       0.78950000
H        3.63090000      -0.65080000       2.22710000
H        3.30200000      -2.07360000       1.22260000
H        2.60850000       1.89400000      -0.36790000
H        2.77650000       1.73990000       1.38820000
H        4.13470000       1.36670000       0.32730000
H        0.87220000      -0.81260000       1.72710000
