17
Properties=species:S:1:pos:R:3 gdb_1893=T pbc="F F F"
C       -0.31790000       1.58280000       0.06070000
C        0.19070000       0.15420000       0.03770000
C        1.03140000      -0.23420000      -1.19860000
O        2.07720000      -1.04760000      -0.68170000
C        1.88220000      -1.16290000       0.72270000
C        3.21030000      -1.16610000       1.44510000
O        1.10950000      -0.05170000       1.10600000
H        0.51690000       2.28450000      -0.02630000
H       -1.00900000       1.75510000      -0.77050000
H       -0.84850000       1.78830000       0.99420000
H       -0.65250000      -0.54830000       0.14350000
H        0.44390000      -0.78650000      -1.94210000
H        1.46720000       0.64950000      -1.68290000
H        1.31770000      -2.09350000       0.92730000
H        3.74190000      -0.23380000       1.24020000
H        3.05150000      -1.26250000       2.52230000
H        3.81670000      -2.00780000       1.10150000
