20
Properties=species:S:1:pos:R:3 gdb_70910=T pbc="F F F"
C       -0.06750000       1.52510000       0.01800000
C       -0.01750000       0.02940000      -0.06770000
C        0.76610000      -0.78110000      -1.11590000
C       -0.19330000      -1.98620000      -0.82880000
O       -0.81900000      -2.60550000      -1.91660000
C        0.42540000      -2.90120000       0.23410000
C        0.62890000      -1.91510000       1.40880000
N       -0.26570000      -0.75650000       1.15800000
C       -1.09020000      -1.01320000      -0.01550000
H        0.90130000       1.93160000       0.33260000
H       -0.31430000       1.96450000      -0.95470000
H       -0.81760000       1.84080000       0.74750000
H        0.58030000      -0.38740000      -2.11890000
H        1.84360000      -0.92570000      -0.97040000
H       -0.16410000      -3.13530000      -2.38320000
H       -0.27910000      -3.69970000       0.49060000
H        1.36180000      -3.36200000      -0.10040000
H        0.35350000      -2.35860000       2.36940000
H        1.66410000      -1.56950000       1.49310000
H       -2.17280000      -0.96630000       0.01550000
