17
Properties=species:S:1:pos:R:3 gdb_67904=T pbc="F F F"
C       -0.09910000       1.49860000      -0.00320000
C        0.03210000       0.00550000       0.07700000
O       -1.25420000      -0.69730000       0.06510000
C       -0.90860000      -1.43890000       1.18690000
N       -1.57120000      -2.27470000       1.84350000
C        0.46720000      -0.81100000       1.31940000
C        1.59420000      -1.44580000       0.46180000
N        0.94740000      -2.14320000      -0.66470000
C        1.15930000      -0.68310000      -0.74570000
H        0.88150000       1.97390000       0.10140000
H       -0.51720000       1.79230000      -0.97240000
H       -0.75730000       1.87480000       0.78450000
H       -2.49280000      -2.42350000       1.42810000
H        0.75100000      -0.35320000       2.26440000
H        2.58450000      -1.71520000       0.80400000
H        1.68180000      -2.58420000      -1.21720000
H        1.73140000      -0.24150000      -1.55300000
