17
Properties=species:S:1:pos:R:3 gdb_27150=T pbc="F F F"
C       -0.27750000       1.55920000       0.30150000
C       -0.04720000       0.09910000       0.07980000
C        0.14070000      -0.57700000      -1.10460000
N        0.33290000      -1.89700000      -0.74830000
C        0.23730000      -1.96430000       0.60670000
N        0.02050000      -0.78380000       1.13870000
C        0.18940000      -0.16220000      -2.51480000
C        1.30040000      -0.52440000      -3.41690000
O        0.05430000      -1.22350000      -3.47650000
H        0.59230000       2.03460000       0.76930000
H       -0.47830000       2.08320000      -0.63740000
H       -1.12850000       1.71540000       0.97180000
H        0.39020000      -2.65490000      -1.40930000
H        0.32840000      -2.89540000       1.14600000
H       -0.37290000       0.73910000      -2.75480000
H        1.52400000       0.10300000      -4.27860000
H        2.13960000      -1.09430000      -3.02130000
