20
Properties=species:S:1:pos:R:3 gdb_13868=T pbc="F F F"
C       -0.00210000       1.55760000       0.01610000
C        0.04690000       0.01750000       0.00500000
C        0.68350000      -0.50010000      -1.29940000
C        0.74970000      -0.52530000       1.22030000
C        0.25050000      -1.30310000       2.17810000
C        1.29680000      -1.61270000       3.20760000
O        2.46970000      -0.93730000       2.76010000
C        2.20180000      -0.24890000       1.54330000
H        1.00270000       1.98950000      -0.04620000
H       -0.57450000       1.92880000      -0.84020000
H       -0.47310000       1.93200000       0.92980000
H       -0.98670000      -0.34940000       0.04030000
H        1.71330000      -0.14370000      -1.40990000
H        0.70150000      -1.59370000      -1.32420000
H        0.11740000      -0.14790000      -2.16780000
H       -0.76480000      -1.67700000       2.23520000
H        1.02110000      -1.25590000       4.21350000
H        1.49870000      -2.69280000       3.29590000
H        2.88290000      -0.60960000       0.75590000
H        2.40560000       0.82610000       1.67300000
