20
Properties=species:S:1:pos:R:3 gdb_63084=T pbc="F F F"
C        0.10950000       1.53300000       0.04470000
C        0.04310000       0.01940000      -0.01980000
C       -1.21290000      -0.57420000       0.59200000
C        0.63930000      -0.72350000      -1.21250000
C        1.40460000      -0.00970000      -2.31590000
N        2.73120000       0.48870000      -1.96620000
C        3.15320000       0.37200000      -0.78320000
O        2.54890000      -0.15560000       0.31420000
C        1.30490000      -0.79360000       0.13450000
H        1.00490000       1.94190000      -0.42670000
H       -0.76020000       1.97370000      -0.45590000
H        0.09690000       1.87260000       1.08630000
H       -2.10590000      -0.24220000       0.04970000
H       -1.19790000      -1.66860000       0.56520000
H       -1.32430000      -0.26660000       1.63830000
H        0.10600000      -1.61420000      -1.53180000
H        1.53580000      -0.70240000      -3.15530000
H        0.83070000       0.83540000      -2.71870000
H        4.13940000       0.73860000      -0.50550000
H        1.27740000      -1.70790000       0.71770000
