21
Properties=species:S:1:pos:R:3 gdb_53935=T pbc="F F F"
C        0.76320000       0.52260000       0.54680000
C       -0.16740000      -0.06240000      -0.49720000
O        0.13230000      -0.09200000      -1.66870000
C       -1.51020000      -0.67360000      -0.00380000
C       -2.12190000       0.15360000       1.13940000
C       -2.49020000      -0.77620000      -1.18460000
C       -1.10940000      -2.07840000       0.53080000
C       -0.89930000      -3.18280000      -0.48630000
O       -0.93620000      -2.26400000       1.71340000
H        1.73880000       0.70380000       0.09480000
H        0.36180000       1.47030000       0.92160000
H        0.85650000      -0.14670000       1.40720000
H       -2.28400000       1.18860000       0.82240000
H       -3.09190000      -0.26650000       1.42120000
H       -1.49450000       0.14420000       2.03000000
H       -2.03680000      -1.25880000      -2.04970000
H       -3.38910000      -1.32830000      -0.89270000
H       -2.79890000       0.22590000      -1.49660000
H       -1.86230000      -3.50930000      -0.89320000
H       -0.29990000      -2.82890000      -1.33030000
H       -0.41370000      -4.02930000       0.00030000
