19
Properties=species:S:1:pos:R:3 gdb_3355=T pbc="F F F"
C       -0.08780000       1.44320000      -0.32500000
C        1.31720000       1.67140000       0.30060000
C        1.42010000       0.15610000       0.64580000
C        1.28790000      -0.21010000       2.13250000
C       -0.21530000      -0.05690000       2.44060000
C       -0.90230000      -0.56580000       1.15730000
C       -0.00200000      -0.07490000       0.01260000
H       -0.90720000       1.97240000       0.17160000
H       -0.14760000       1.66260000      -1.39390000
H        2.07420000       2.02340000      -0.40460000
H        1.33450000       2.33650000       1.16970000
H        2.25800000      -0.35380000       0.16550000
H        1.58810000      -1.25460000       2.28270000
H        1.92330000       0.40590000       2.77790000
H       -0.52590000      -0.60140000       3.33690000
H       -0.46140000       0.99890000       2.60830000
H       -0.92460000      -1.66270000       1.16390000
H       -1.93730000      -0.22120000       1.05890000
H       -0.04790000      -0.72830000      -0.86130000
