18
Properties=species:S:1:pos:R:3 gdb_86992=T pbc="F F F"
O        0.49790000      -0.20770000      -0.81590000
C       -0.08730000      -0.62000000       0.38840000
C       -0.13890000       0.34740000       1.60570000
C       -1.53090000      -0.22770000       1.94870000
C       -1.63020000      -0.77800000       0.49540000
O       -1.37160000      -1.23150000       2.94880000
C       -2.56250000      -1.72200000       3.50000000
C       -3.30620000      -2.65250000       2.62350000
N       -3.89300000      -3.38440000       1.94900000
H        0.05710000       0.59810000      -1.10620000
H        0.41630000      -1.55130000       0.65860000
H        0.62730000       0.26120000       2.37830000
H       -0.21350000       1.39030000       1.28110000
H       -2.30600000       0.48100000       2.26650000
H       -2.14360000      -0.05650000      -0.15040000
H       -2.06870000      -1.76450000       0.34470000
H       -2.29120000      -2.26240000       4.41260000
H       -3.24520000      -0.90600000       3.78430000
