19
Properties=species:S:1:pos:R:3 gdb_105906=T pbc="F F F"
O        0.56380000       0.23500000       0.92720000
C       -0.17720000       0.33540000      -0.27570000
C       -1.53010000      -0.29980000      -0.12700000
N       -2.64680000      -0.30540000      -1.12190000
C       -3.28120000       0.98710000      -1.37190000
C       -3.20050000      -1.07980000       0.03130000
C       -1.83070000      -1.77350000       0.28210000
N       -1.73400000      -1.44050000       1.74080000
C       -2.45270000      -0.26020000       1.15170000
H        0.15470000      -0.45440000       1.47210000
H       -0.28600000       1.40020000      -0.52570000
H        0.35450000      -0.13960000      -1.11610000
H       -2.65010000       1.57790000      -2.04310000
H       -4.23840000       0.82220000      -1.87680000
H       -3.47070000       1.58450000      -0.46400000
H       -4.20490000      -1.50910000       0.03710000
H       -1.43660000      -2.68550000      -0.16520000
H       -2.36780000      -2.02040000       2.29540000
H       -2.77860000       0.58270000       1.76030000
