19
Properties=species:S:1:pos:R:3 gdb_36688=T pbc="F F F"
C       -0.05140000      -1.17630000      -0.12460000
C        0.04190000       0.00990000       0.03660000
C        0.12440000       1.44890000       0.25000000
O        1.32090000       1.95460000      -0.31230000
C        1.45560000       3.34750000      -0.14480000
C        1.87670000       3.90370000       1.26530000
C        3.12020000       4.51000000       0.60600000
C        3.93750000       3.42170000      -0.02290000
C        2.72260000       3.92210000      -0.75570000
H       -0.12750000      -2.22520000      -0.27200000
H       -0.75230000       1.94160000      -0.20520000
H        0.07910000       1.66320000       1.33070000
H        0.55270000       3.85850000      -0.51050000
H        1.16970000       4.63960000       1.65470000
H        2.07150000       3.15050000       2.03590000
H        3.52470000       5.49170000       0.81670000
H        4.88340000       3.73380000      -0.45350000
H        3.94400000       2.42150000       0.40070000
H        2.78980000       4.35960000      -1.74390000
