18
Properties=species:S:1:pos:R:3 gdb_79484=T pbc="F F F"
C        0.07210000       1.51640000      -0.16490000
N        0.03260000       0.06300000      -0.03400000
C       -1.10130000      -0.49830000       0.75800000
C       -0.26990000      -1.74920000       1.17320000
C       -0.63880000      -1.60290000       2.66030000
C       -0.52490000      -0.14460000       2.17900000
C        0.68010000      -0.49760000       1.20280000
C        2.08290000      -0.43910000       1.47480000
C        3.26110000      -0.37610000       1.71070000
H        1.07760000       1.81830000      -0.47330000
H       -0.62680000       1.82040000      -0.95090000
H       -0.18460000       2.06630000       0.75580000
H       -2.13820000      -0.46400000       0.42270000
H       -0.10310000      -2.63720000       0.56510000
H       -1.63740000      -1.94250000       2.94940000
H        0.10760000      -1.93830000       3.38500000
H       -0.65350000       0.77240000       2.75280000
H        4.30230000      -0.32610000       1.91420000
