20
Properties=species:S:1:pos:R:3 gdb_111657=T pbc="F F F"
C        0.43510000       1.29300000      -0.26600000
C       -0.27440000       0.02260000       0.19650000
N        0.49040000      -0.62200000       1.26340000
C        0.45960000      -2.03340000       1.55170000
C       -0.08150000      -3.00920000       0.50360000
C        0.80220000      -2.83360000      -0.75080000
C        1.98000000      -1.93980000      -0.33640000
O        2.97830000      -1.75310000      -0.98810000
C        1.72220000      -1.38820000       1.03920000
H        1.39910000       1.05700000      -0.72730000
H       -0.17360000       1.82330000      -1.00430000
H        0.61730000       1.96000000       0.58110000
H       -1.24780000       0.27620000       0.63310000
H       -0.48240000      -0.62180000      -0.66970000
H        0.34450000      -2.29160000       2.60170000
H        0.00020000      -4.02700000       0.89600000
H       -1.14310000      -2.83370000       0.30200000
H        1.20590000      -3.78170000      -1.11710000
H        0.28000000      -2.37590000      -1.59820000
H        2.57980000      -1.10940000       1.64400000
