18
Properties=species:S:1:pos:R:3 gdb_71087=T pbc="F F F"
C       -0.07660000       1.49150000       0.10770000
C       -0.05160000      -0.01330000       0.00450000
C        0.38950000      -0.78410000      -1.25790000
N       -0.41220000      -1.95110000      -0.74760000
C        0.05140000      -2.18230000       0.71030000
C        0.72430000      -0.83110000       1.07150000
C       -1.38700000      -1.84160000       1.12020000
O       -2.18350000      -2.21230000       1.92690000
C       -1.35790000      -0.91860000      -0.08750000
H        0.94090000       1.89830000       0.07390000
H       -0.64310000       1.93950000      -0.71520000
H       -0.53250000       1.81870000       1.04840000
H       -0.07240000      -0.42510000      -2.18190000
H        1.45710000      -0.96440000      -1.42390000
H        0.54530000      -3.12280000       0.94150000
H        1.80500000      -0.80900000       0.90470000
H        0.52480000      -0.52660000       2.10360000
H       -2.22460000      -0.56320000      -0.64310000
