19
Properties=species:S:1:pos:R:3 gdb_122765=T pbc="F F F"
C        0.05670000       1.54380000       0.14510000
C        0.02810000       0.02850000       0.04300000
O        0.69620000      -0.51230000       1.16590000
C        0.72510000      -1.92180000       1.16650000
C        1.46710000      -2.36530000       2.41930000
C        1.57010000      -3.87110000       2.54360000
O        1.10810000      -4.63970000       1.72680000
C        2.27030000      -4.35130000       3.72540000
C        2.85230000      -4.73000000       4.70860000
H        1.08790000       1.90800000       0.16570000
H       -0.45340000       1.99310000      -0.71210000
H       -0.44210000       1.87670000       1.05980000
H       -1.01160000      -0.33860000       0.00760000
H        0.51750000      -0.30710000      -0.88700000
H       -0.29380000      -2.33930000       1.15980000
H        1.23070000      -2.30840000       0.26780000
H        2.47950000      -1.94160000       2.43600000
H        0.97360000      -1.97170000       3.31720000
H        3.36300000      -5.08290000       5.57170000
