19
Properties=species:S:1:pos:R:3 gdb_99695=T pbc="F F F"
C        0.55130000       0.91390000       0.65920000
O        0.21510000      -0.40760000       0.27790000
C       -1.13290000      -0.53010000      -0.15500000
C       -1.30470000      -1.79280000      -0.86190000
C       -1.50290000      -2.83730000      -1.42740000
C       -1.72520000      -4.09490000      -2.12440000
C       -2.12180000      -0.46990000       1.04750000
C       -1.80040000      -1.37650000       2.21510000
O       -3.07410000       0.26970000       1.01460000
H        1.60530000       0.90080000       0.94440000
H        0.41180000       1.61950000      -0.17290000
H       -0.04340000       1.26890000       1.51380000
H       -1.40540000       0.31000000      -0.81210000
H       -2.66580000      -4.56040000      -1.81050000
H       -1.77140000      -3.94620000      -3.20850000
H       -0.91730000      -4.80530000      -1.91860000
H       -1.82040000      -2.41960000       1.88260000
H       -0.78570000      -1.18410000       2.57480000
H       -2.52670000      -1.22350000       3.01350000
