15
Properties=species:S:1:pos:R:3 gdb_124091=T pbc="F F F"
C       -0.00890000       1.48440000      -0.14220000
O        1.40300000       1.55440000       0.13460000
C        1.44730000       0.17140000       0.53510000
C        0.00530000      -0.05160000       0.02650000
N       -0.95260000      -0.64600000       0.93380000
N       -1.72490000      -1.67620000       0.59720000
C       -2.41220000      -1.86030000       1.71670000
N       -2.07420000      -0.98420000       2.68980000
N       -1.14410000      -0.21790000       2.17630000
H       -0.61040000       1.99850000       0.61590000
H       -0.25740000       1.86060000      -1.13970000
H        2.23530000      -0.38690000       0.01970000
H        1.54810000       0.05240000       1.61970000
H       -0.07150000      -0.61490000      -0.90040000
H       -3.15920000      -2.62840000       1.83310000
