16
Properties=species:S:1:pos:R:3 gdb_51206=T pbc="F F F"
O       -0.66290000       0.70300000       0.67390000
C        0.09360000       0.95890000      -0.22480000
C        1.26210000       1.92010000      -0.12730000
C        1.23880000       2.96780000      -1.20670000
N        0.24780000       4.09200000      -1.29490000
C        1.12940000       4.32350000      -2.48450000
C        2.39990000       3.89020000      -1.70120000
O        2.87200000       2.96080000      -2.71600000
C        1.42420000       2.81430000      -2.76560000
H       -0.01990000       0.48080000      -1.22610000
H        1.26950000       2.37730000       0.86590000
H        2.18580000       1.33790000      -0.26040000
H       -0.66860000       3.74530000      -1.59010000
H        1.00250000       5.14780000      -3.18520000
H        3.12050000       4.47790000      -1.13500000
H        0.98820000       2.11740000      -3.48330000
