14
Properties=species:S:1:pos:R:3 gdb_3757=T pbc="F F F"
C       -0.04390000       1.41190000      -0.01340000
N       -0.00930000      -0.03090000       0.02210000
N        0.03640000      -0.74720000      -1.13370000
C        0.05120000      -2.01310000      -0.73560000
C        0.03810000      -2.13540000       0.66890000
C        0.00470000      -0.82790000       1.12240000
N       -0.09570000      -0.28010000       2.40720000
H        0.95170000       1.85090000       0.12870000
H       -0.42120000       1.71140000      -0.99100000
H       -0.71100000       1.78230000       0.76990000
H        0.07580000      -2.80230000      -1.47340000
H        0.05530000      -3.03120000       1.26840000
H       -0.08860000      -1.00200000       3.11550000
H        0.63560000       0.39050000       2.61680000
