21
Properties=species:S:1:pos:R:3 gdb_75359=T pbc="F F F"
C        0.43330000       1.36500000      -0.04020000
C        0.09020000      -0.09230000      -0.02690000
C       -0.15210000      -0.88120000      -1.07720000
C       -0.51730000      -2.29940000      -0.70100000
C       -0.25440000      -2.32220000       0.81340000
C        1.21130000      -2.59420000       1.27100000
C        1.23480000      -1.23140000       2.01720000
C       -0.08180000      -0.84820000       1.28010000
O       -1.13500000      -0.33860000       2.07990000
H        1.38630000       1.56060000       0.46830000
H        0.50900000       1.75360000      -1.05900000
H       -0.33170000       1.95340000       0.48320000
H       -0.11310000      -0.54830000      -2.11060000
H       -1.56270000      -2.52010000      -0.95690000
H        0.09200000      -3.04380000      -1.22990000
H       -0.99290000      -2.87860000       1.39180000
H        1.36830000      -3.48230000       1.88630000
H        1.90690000      -2.62990000       0.42830000
H        1.05120000      -1.34100000       3.08980000
H        2.10750000      -0.58920000       1.86730000
H       -0.85590000       0.51100000       2.43820000
