15
Properties=species:S:1:pos:R:3 gdb_131654=T pbc="F F F"
O        0.72440000      -0.16280000       0.78020000
C       -0.06950000       0.25540000      -0.32320000
C       -1.48510000      -0.12890000      -0.03100000
C       -2.69810000       0.29120000      -0.53060000
C       -3.66230000      -0.51170000       0.13470000
N       -3.07910000      -1.36330000       0.99170000
N       -1.76980000      -1.11260000       0.85780000
C       -5.07020000      -0.46990000      -0.02940000
C       -6.26030000      -0.40600000      -0.19610000
H        1.65010000      -0.10220000       0.52850000
H       -0.00780000       1.34180000      -0.48290000
H        0.26750000      -0.22940000      -1.25310000
H       -2.88070000       1.05900000      -1.26400000
H       -1.09800000      -1.58980000       1.43630000
H       -7.31180000      -0.35880000      -0.33380000
