10
Properties=species:S:1:pos:R:3 gdb_1015=T pbc="F F F"
N        0.11300000      -1.12050000      -0.00510000
C        0.00640000       0.03230000       0.00280000
C       -0.06800000       1.44910000       0.01180000
N       -1.16640000       2.18290000       0.03010000
C       -0.73400000       3.47790000       0.03190000
C        0.64150000       3.53340000       0.01460000
N        1.05730000       2.23160000       0.00170000
H       -1.43030000       4.30190000       0.04560000
H        1.33810000       4.35500000       0.01040000
H        2.00870000       1.90070000      -0.01260000
