16
Properties=species:S:1:pos:R:3 gdb_19131=T pbc="F F F"
N        0.10600000      -1.19060000       0.06000000
C        0.09050000      -0.03290000       0.06460000
C        0.00400000       1.41230000       0.02590000
C        0.47480000       2.17850000       1.24970000
C        1.30540000       2.19480000       0.00130000
N       -1.09290000       2.00540000      -0.69610000
C       -1.57280000       1.36310000      -1.91900000
C       -2.39830000       1.34680000      -0.67840000
H       -0.10950000       3.05990000       1.48370000
H        0.82500000       1.60620000       2.10020000
H        2.23190000       1.63380000      -0.01450000
H        1.28480000       3.08720000      -0.61200000
H       -1.80850000       2.04150000      -2.73320000
H       -1.11870000       0.42090000      -2.21660000
H       -2.48590000       0.39380000      -0.16200000
H       -3.24850000       2.01300000      -0.56920000
