19
Properties=species:S:1:pos:R:3 gdb_94527=T pbc="F F F"
C       -0.49030000       1.50880000       0.48560000
C       -0.23390000       0.02100000       0.27220000
C        0.65370000      -0.30620000      -0.96430000
C        1.86260000      -0.56120000      -0.02650000
C        0.89710000      -0.63010000       1.17920000
C        1.26810000       0.11480000       2.42450000
O        2.14580000       0.94670000       2.50780000
C        0.43620000      -0.16590000       3.68530000
O       -0.46850000      -0.95810000       3.72530000
H        0.44080000       2.08500000       0.49180000
H       -1.12000000       1.89820000      -0.32130000
H       -1.00920000       1.69980000       1.43150000
H       -1.17780000      -0.52670000       0.32210000
H        0.32630000      -1.21130000      -1.48210000
H        0.76090000       0.49450000      -1.70080000
H        2.46420000      -1.45220000      -0.21690000
H        2.52850000       0.30040000       0.05810000
H        0.59930000      -1.64600000       1.44810000
H        0.75620000       0.44450000       4.55670000
