19
Properties=species:S:1:pos:R:3 gdb_90855=T pbc="F F F"
C       -0.10660000       1.50600000      -0.04570000
C        0.06270000      -0.00010000       0.07290000
O        0.89820000      -0.50940000      -1.00510000
C        1.89840000      -1.20050000      -0.30110000
C        1.19890000      -2.00200000       0.86960000
C        2.35950000      -2.37270000       1.76710000
C        3.10710000      -1.26310000       1.79530000
C        2.35380000      -0.29270000       0.91000000
C        0.83720000      -0.52320000       1.28050000
H        0.84910000       2.02610000       0.06180000
H       -0.52470000       1.76050000      -1.02390000
H       -0.79200000       1.87420000       0.72510000
H       -0.91980000      -0.48620000      -0.00220000
H        2.61360000      -1.66600000      -0.98050000
H        0.41710000      -2.73050000       0.65230000
H        2.53050000      -3.33640000       2.22490000
H        4.05330000      -1.07660000       2.28290000
H        2.75520000       0.70560000       0.73810000
H        0.45730000      -0.29220000       2.27710000
