18
Properties=species:S:1:pos:R:3 gdb_34959=T pbc="F F F"
C       -0.01950000      -1.25760000      -0.06290000
C       -0.01690000      -0.05460000      -0.02960000
C        0.01600000       1.39170000       0.04690000
C       -0.29340000       2.10210000       1.40840000
C        0.54550000       1.54940000       2.57360000
N        1.77240000       2.30140000       2.13260000
C        2.42180000       1.59120000       0.97530000
C        1.39060000       2.13950000      -0.02610000
C        0.90490000       3.06310000       1.13410000
H       -0.03170000      -2.31860000      -0.10600000
H       -0.64320000       1.82090000      -0.71570000
H       -1.32800000       2.39630000       1.58610000
H        0.21370000       1.93320000       3.54370000
H        0.66530000       0.46340000       2.64470000
H        3.42200000       2.00470000       0.81070000
H        2.50090000       0.50430000       1.08090000
H        1.72250000       2.46420000      -1.01250000
H        0.89170000       4.15200000       1.14700000
