12
Properties=species:S:1:pos:R:3 gdb_46247=T pbc="F F F"
O       -0.11880000       0.07240000      -0.23160000
C       -0.03710000       1.22730000       0.00730000
O       -0.99240000       2.07960000       0.52100000
C       -0.08790000       3.22910000       0.55550000
C        0.98990000       2.35590000      -0.07880000
O        2.34530000       2.28210000       0.25940000
C        2.02340000       2.63760000      -1.09180000
C        2.35670000       1.68190000      -2.12450000
N        2.63420000       0.95880000      -2.98120000
H       -0.47690000       4.05430000      -0.04320000
H        0.11850000       3.54170000       1.58090000
H        2.21990000       3.67590000      -1.35240000
