17
Properties=species:S:1:pos:R:3 gdb_113348=T pbc="F F F"
O       -0.06430000       1.29660000      -0.60050000
C        0.04780000       0.10970000       0.16630000
C       -1.29120000      -0.58280000       0.26490000
O       -1.70740000      -1.34850000      -0.87230000
C       -1.51830000      -2.04390000       0.38760000
C       -0.39860000      -3.07360000       0.35360000
O       -0.76570000      -4.19430000      -0.42260000
C       -2.73660000      -2.49030000       1.02430000
C       -3.73020000      -2.86540000       1.58620000
H       -0.35440000       1.04080000      -1.48330000
H        0.80990000      -0.56360000      -0.24590000
H        0.37340000       0.42100000       1.16470000
H       -2.07860000       0.05660000       0.66640000
H        0.52180000      -2.60800000      -0.02030000
H       -0.20880000      -3.44360000       1.36560000
H       -0.99750000      -3.86770000      -1.29960000
H       -4.61320000      -3.20140000       2.07160000
