19
Properties=species:S:1:pos:R:3 gdb_106118=T pbc="F F F"
C        0.09930000       1.37830000       0.27910000
O       -0.00210000       0.04910000      -0.21590000
C       -1.25860000      -0.47040000      -0.13650000
C       -2.13840000      -0.91150000       1.00770000
C       -3.34990000      -0.15720000       0.45850000
C       -2.63800000      -0.19680000      -0.91830000
C       -2.62260000      -1.70920000      -1.29310000
O       -2.03010000      -2.00460000      -2.53740000
C       -1.68950000      -1.90840000      -0.10040000
H        1.14360000       1.67820000       0.17190000
H       -0.53430000       2.06700000      -0.29590000
H       -0.18970000       1.42970000       1.33690000
H       -1.86110000      -1.09850000       2.03760000
H       -4.33280000      -0.63910000       0.51310000
H       -3.41700000       0.85400000       0.86950000
H       -2.82990000       0.54320000      -1.69270000
H       -3.59180000      -2.21910000      -1.29420000
H       -1.12650000      -1.66580000      -2.51730000
H       -1.09350000      -2.77750000       0.14890000
