18
Properties=species:S:1:pos:R:3 gdb_127157=T pbc="F F F"
C        0.49900000       0.33200000      -0.46640000
N        0.04540000      -0.25260000       0.79000000
C        0.13490000       0.70400000       1.88370000
C       -1.29270000      -0.82340000       0.68020000
C       -1.28850000      -2.06760000      -0.15500000
N       -2.16740000      -2.30550000      -1.09140000
O       -1.85540000      -3.53680000      -1.59840000
N       -0.76100000      -4.06840000      -0.97440000
C       -0.40160000      -3.18250000      -0.08950000
H        1.53700000       0.66120000      -0.36250000
H        0.45720000      -0.41180000      -1.26650000
H       -0.10900000       1.20190000      -0.77810000
H       -0.51480000       1.58860000       1.74480000
H       -0.14380000       0.22190000       2.82590000
H        1.16630000       1.05730000       1.97470000
H       -1.62810000      -1.08670000       1.69070000
H       -2.03890000      -0.12040000       0.26890000
H        0.45200000      -3.33690000       0.55080000
