17
Properties=species:S:1:pos:R:3 gdb_109416=T pbc="F F F"
C        0.03630000       1.33730000      -0.25560000
O       -0.08980000       0.08220000       0.39360000
C       -1.29530000      -0.55520000       0.12640000
C       -1.58970000      -1.22840000      -1.26920000
O       -1.71020000      -0.81780000      -2.38490000
C       -1.78620000      -2.57020000      -0.57810000
O       -0.51220000      -2.78950000       0.07320000
C       -1.45590000      -1.95390000       0.74090000
C       -1.89380000      -2.31130000       2.12280000
H        1.00710000       1.74560000       0.03210000
H       -0.00720000       1.23460000      -1.34650000
H       -0.75480000       2.03320000       0.06380000
H       -2.16320000       0.08900000       0.36370000
H       -2.38630000      -3.43770000      -0.82530000
H       -1.13160000      -2.01230000       2.84970000
H       -2.82600000      -1.79870000       2.37920000
H       -2.04520000      -3.39010000       2.20840000
