15
Properties=species:S:1:pos:R:3 gdb_127955=T pbc="F F F"
C       -0.03610000       1.42510000      -0.15220000
N        0.09730000      -0.01640000      -0.06190000
C        0.64770000      -0.51820000       0.96640000
N        0.74480000      -1.93240000       0.98840000
N        1.27270000      -2.66320000       1.94590000
N        1.75710000      -2.08470000       2.97270000
C        1.68170000      -0.67590000       2.99190000
N        2.21960000      -0.16070000       4.11240000
N        1.17290000       0.10160000       2.08040000
H        0.47050000       1.78000000      -1.05820000
H       -1.09600000       1.68490000      -0.26430000
H        0.36860000       1.96510000       0.71090000
H        0.37640000      -2.44530000       0.19910000
H        2.59680000      -0.78140000       4.80610000
H        2.22010000       0.83400000       4.25250000
