15
Properties=species:S:1:pos:R:3 gdb_4362=T pbc="F F F"
N       -0.01760000       1.40640000       0.15090000
C       -0.01050000       0.01550000       0.05930000
C       -1.19530000      -0.72180000       0.08240000
C       -1.14000000      -2.11600000       0.05360000
N       -2.29520000      -2.89150000       0.13950000
C        0.12730000      -2.71750000      -0.00770000
N        1.26010000      -2.02260000      -0.03520000
C        1.19900000      -0.69520000      -0.00230000
H        0.81370000       1.85440000      -0.20670000
H       -0.85470000       1.85370000      -0.19350000
H       -2.15490000      -0.21340000       0.13480000
H       -3.13450000      -2.44850000      -0.20500000
H       -2.19840000      -3.82940000      -0.22190000
H        0.21190000      -3.80250000      -0.03480000
H        2.14430000      -0.15590000      -0.02500000
