19
Properties=species:S:1:pos:R:3 gdb_52907=T pbc="F F F"
C        0.19290000       1.61260000      -0.23800000
C        0.10640000       0.16440000      -0.11740000
C        0.04470000      -1.03500000      -0.02800000
C       -0.05950000      -2.48090000       0.11180000
C        0.07170000      -3.06880000       1.57430000
C       -1.12100000      -4.01070000       1.28060000
C       -1.51590000      -3.09750000       0.09470000
C        0.82380000      -3.17510000      -0.82250000
C        1.54000000      -3.77490000      -1.57920000
H        1.00100000       1.90560000      -0.91730000
H       -0.73870000       2.03630000      -0.62920000
H        0.38860000       2.08280000       0.73220000
H        1.03630000      -3.51110000       1.82630000
H       -0.17910000      -2.29660000       2.30450000
H       -0.78680000      -4.99380000       0.94100000
H       -1.85820000      -4.14450000       2.07420000
H       -2.24150000      -2.33390000       0.38230000
H       -1.82630000      -3.56300000      -0.84150000
H        2.17820000      -4.28940000      -2.25400000
