20
Properties=species:S:1:pos:R:3 gdb_121175=T pbc="F F F"
C        0.26690000       0.68250000      -0.67160000
O       -0.46410000       0.32300000       0.49020000
C       -1.58240000      -0.49260000       0.25390000
C       -1.24950000      -1.98430000       0.10270000
C       -2.45030000      -2.95620000       0.04330000
O       -2.02450000      -3.43010000      -1.26770000
C       -0.94650000      -2.55710000      -1.27200000
N       -0.07150000      -2.36120000      -2.14370000
C       -0.10880000      -3.12690000      -3.38210000
H        1.07020000       1.34510000      -0.34030000
H        0.69070000      -0.18890000      -1.18410000
H       -0.37040000       1.22860000      -1.38470000
H       -2.22540000      -0.38340000       1.13600000
H       -2.15540000      -0.14400000      -0.62110000
H       -0.49800000      -2.25360000       0.84960000
H       -2.46110000      -3.76890000       0.77320000
H       -3.43720000      -2.48650000      -0.01400000
H        0.82390000      -3.69310000      -3.48090000
H       -0.95180000      -3.82380000      -3.45130000
H       -0.15310000      -2.43460000      -4.22990000
