22
Properties=species:S:1:pos:R:3 gdb_111143=T pbc="F F F"
C       -0.53240000       0.83910000      -0.22270000
C       -0.52660000      -0.65550000       0.09160000
N        0.35420000      -0.94640000       1.22230000
C        1.83420000      -0.61060000       1.33000000
C        1.82180000      -1.56830000       2.55500000
C        1.04660000      -2.27230000       1.40030000
C        2.22340000      -1.85830000       0.44410000
C        2.13510000      -1.79410000      -1.07710000
O        3.41620000      -2.55550000       0.77730000
H        0.42610000       1.16600000      -0.64070000
H       -1.31360000       1.07910000      -0.95000000
H       -0.71640000       1.41720000       0.68790000
H       -1.53210000      -0.95270000       0.41890000
H       -0.33750000      -1.22910000      -0.82600000
H        2.20140000       0.41680000       1.27840000
H        2.76940000      -1.99980000       2.86210000
H        1.18620000      -1.23620000       3.37410000
H        0.49870000      -3.21690000       1.42730000
H        1.38930000      -1.10270000      -1.45920000
H        3.10330000      -1.45350000      -1.46890000
H        1.94750000      -2.78750000      -1.49690000
H        4.12320000      -2.23090000       0.21060000
