21
Properties=species:S:1:pos:R:3 gdb_52619=T pbc="F F F"
C        0.00780000       1.46760000       0.08210000
C        0.01070000       0.01220000       0.02490000
C        0.01000000      -1.19130000      -0.02870000
C        0.01400000      -2.65770000      -0.08430000
C       -1.43670000      -3.17850000      -0.17570000
C        0.82210000      -3.12930000      -1.31250000
C        0.68740000      -3.17750000       1.23120000
C        0.76850000      -4.62970000       1.32940000
C        0.83360000      -5.82810000       1.40690000
H        0.57730000       1.90060000      -0.74790000
H       -1.01110000       1.86690000       0.02780000
H        0.45530000       1.83060000       1.01410000
H       -1.91590000      -2.81270000      -1.08780000
H       -1.44520000      -4.27210000      -0.18870000
H       -2.02850000      -2.83680000       0.67850000
H        1.84830000      -2.75230000      -1.27260000
H        0.85480000      -4.22200000      -1.34620000
H        0.36240000      -2.76300000      -2.23440000
H        1.69390000      -2.74850000       1.29790000
H        0.12690000      -2.78270000       2.08660000
H        0.89590000      -6.88510000       1.48480000
