18
Properties=species:S:1:pos:R:3 gdb_10085=T pbc="F F F"
C        0.03700000       1.31750000      -0.11830000
O       -0.05840000      -0.09060000      -0.01410000
C       -1.39390000      -0.60240000      -0.02080000
C       -1.84080000      -0.80760000      -1.47450000
O       -0.94260000      -1.65100000      -2.16540000
C       -1.37100000      -1.92330000       0.75910000
C       -0.93460000      -1.75430000       2.19650000
O       -1.53270000      -2.19890000       3.14390000
H        1.10010000       1.56760000      -0.09380000
H       -0.39230000       1.70070000      -1.05430000
H       -0.46580000       1.81480000       0.72360000
H       -2.07020000       0.11310000       0.47260000
H       -2.82630000      -1.28370000      -1.50470000
H       -1.93340000       0.17230000      -1.96980000
H       -0.06130000      -1.30280000      -1.97930000
H       -2.35590000      -2.39790000       0.74450000
H       -0.66290000      -2.59190000       0.25290000
H        0.00570000      -1.17730000       2.32770000
