20
Properties=species:S:1:pos:R:3 gdb_23046=T pbc="F F F"
O       -0.39820000       1.55180000       0.03720000
N       -0.13420000       0.18620000       0.25890000
C       -1.15490000      -0.52290000       0.01350000
C       -2.57500000      -0.28280000      -0.45340000
C       -2.79950000      -1.82710000      -0.36610000
C       -1.32160000      -2.01990000       0.11440000
C       -0.39590000      -3.02370000      -0.63370000
C       -0.52310000      -3.99950000       0.56580000
C       -1.03750000      -2.81350000       1.42360000
H        0.44590000       1.95940000       0.25830000
H       -3.17700000       0.32590000       0.22770000
H       -2.65350000       0.15490000      -1.45290000
H       -3.55240000      -2.13250000       0.36450000
H       -3.02620000      -2.30420000      -1.32250000
H       -0.73600000      -3.36740000      -1.61460000
H        0.61500000      -2.61890000      -0.73110000
H       -1.29760000      -4.75360000       0.40140000
H        0.38530000      -4.50480000       0.90080000
H       -0.23560000      -2.34010000       1.99650000
H       -1.88990000      -2.98920000       2.08570000
