12
Properties=species:S:1:pos:R:3 gdb_1501=T pbc="F F F"
C        0.01220000       1.40600000       0.05950000
O       -0.00400000      -0.00620000      -0.00730000
C        0.63920000      -0.60680000       1.06430000
C        0.58000000      -2.11480000       0.92140000
O        0.06040000      -2.71810000       0.02420000
C        1.25030000      -2.82640000       2.03620000
N        1.77590000      -3.37120000       2.91020000
H        1.03960000       1.79990000       0.05320000
H       -0.51560000       1.77100000      -0.82320000
H       -0.49770000       1.77470000       0.96200000
H        1.70590000      -0.32060000       1.14230000
H        0.18630000      -0.34590000       2.04030000
