15
Properties=species:S:1:pos:R:3 gdb_126071=T pbc="F F F"
C        1.04320000       1.10230000      -0.64150000
C        0.05380000       0.15740000      -0.01790000
O        0.54580000      -1.09280000       0.48070000
C        0.00240000      -0.17030000       1.42570000
C        0.95280000       0.35840000       2.42060000
C        2.28880000       0.15880000       2.57810000
O        2.70280000       0.82800000       3.65010000
N        1.54580000       1.47440000       4.18940000
N        0.56600000       1.17850000       3.46080000
H        1.92480000       1.23860000      -0.01130000
H        1.36920000       0.71950000      -1.61380000
H        0.57750000       2.07990000      -0.80330000
H       -0.89210000       0.06010000      -0.55400000
H       -0.96630000      -0.44670000       1.84270000
H        3.01390000      -0.42030000       2.03210000
