21
Properties=species:S:1:pos:R:3 gdb_1974=T pbc="F F F"
C        0.03890000       1.55450000       0.10150000
C       -0.14120000       0.04170000      -0.06110000
C        0.65890000      -0.53740000      -1.22060000
C        2.21200000      -0.58160000      -1.12830000
C        2.18020000      -1.97230000      -1.82280000
C        3.14500000      -3.05360000      -1.36200000
C        0.67880000      -2.07680000      -1.43260000
H        1.08990000       1.81150000       0.27330000
H       -0.28880000       2.09040000      -0.79650000
H       -0.53980000       1.93820000       0.94750000
H        0.15620000      -0.46620000       0.86670000
H       -1.20550000      -0.18870000      -0.20590000
H        0.36210000      -0.04080000      -2.15320000
H        2.78550000       0.21800000      -1.60460000
H        2.54070000      -0.67060000      -0.08550000
H        2.26570000      -1.83890000      -2.90770000
H        3.07700000      -3.20460000      -0.27830000
H        2.93020000      -4.01360000      -1.84530000
H        4.18270000      -2.78920000      -1.59590000
H        0.55610000      -2.60640000      -0.48010000
H       -0.01550000      -2.50720000      -2.15950000
