17
Properties=species:S:1:pos:R:3 gdb_66622=T pbc="F F F"
C        0.09000000       1.56970000       0.03450000
C       -0.00900000       0.08010000      -0.01220000
C        0.90220000      -0.99320000      -0.56600000
C        0.50130000      -1.00470000       0.91120000
C       -0.76890000      -1.89130000       0.78320000
O       -0.48170000      -2.94330000      -0.16280000
C       -0.24740000      -1.88540000      -1.11480000
C       -1.20460000      -0.90040000      -0.33900000
O       -2.52260000      -0.61330000      -0.58910000
H        1.09620000       1.88640000       0.32950000
H       -0.12170000       2.02080000      -0.94250000
H       -0.61660000       1.99350000       0.75690000
H        1.92720000      -0.91580000      -0.90220000
H        1.21330000      -0.94070000       1.72280000
H       -1.34750000      -2.19910000       1.65190000
H       -0.28690000      -2.19450000      -2.15860000
H       -2.58680000      -0.13530000      -1.42360000
