20
Properties=species:S:1:pos:R:3 gdb_32225=T pbc="F F F"
C       -0.02110000       1.44660000      -0.04370000
N       -0.11330000       0.00820000       0.09230000
C        0.58990000      -0.67700000       1.07760000
C        1.20270000      -0.00610000       2.14540000
C        1.86150000      -0.71530000       3.14610000
C        1.93210000      -2.10180000       3.09850000
C        1.32750000      -2.77020000       2.03440000
C        0.65630000      -2.09050000       1.02350000
C       -0.00290000      -2.83670000      -0.10820000
H        1.01240000       1.81340000      -0.14850000
H       -0.58690000       1.75280000      -0.92670000
H       -0.46720000       1.94660000       0.82310000
H       -0.19220000      -0.48490000      -0.78190000
H        1.16500000       1.07510000       2.19760000
H        2.32530000      -0.17150000       3.96310000
H        2.44610000      -2.65860000       3.87400000
H        1.37320000      -3.85480000       1.98570000
H       -1.07090000      -2.59620000      -0.18450000
H        0.44800000      -2.59830000      -1.08270000
H        0.08850000      -3.91660000       0.03040000
