22
Properties=species:S:1:pos:R:3 gdb_60097=T pbc="F F F"
C       -0.03550000       1.55160000      -0.00720000
C        0.00580000       0.02250000      -0.01260000
C        0.80970000      -0.53100000      -1.18330000
O        0.62640000      -0.47400000       1.18240000
C       -0.19440000      -0.65420000       2.27150000
C       -1.43460000      -1.57480000       2.45920000
N       -1.22680000      -0.98080000       3.85930000
C        0.27220000      -1.23310000       3.61270000
C       -0.99730000       0.35520000       3.14280000
H        0.98000000       1.95540000       0.05350000
H       -0.50210000       1.92600000      -0.92430000
H       -0.60720000       1.93440000       0.84230000
H       -1.02090000      -0.36950000      -0.06390000
H        1.84640000      -0.18410000      -1.12640000
H        0.81390000      -1.62390000      -1.16430000
H        0.38620000      -0.19860000      -2.13590000
H       -2.38490000      -1.28200000       2.00520000
H       -1.28260000      -2.65650000       2.41750000
H        0.54830000      -2.28990000       3.64880000
H        0.92590000      -0.62120000       4.23930000
H       -0.43740000       1.08030000       3.73910000
H       -1.91530000       0.78820000       2.73640000
