18
Properties=species:S:1:pos:R:3 gdb_117309=T pbc="F F F"
C        0.07220000       1.54050000       0.32250000
C        0.02170000       0.05170000       0.04020000
O        0.64920000      -0.62280000       1.14870000
C        0.69000000      -1.97390000       1.04650000
O        0.25490000      -2.61440000       0.13170000
N        1.32260000      -2.45800000       2.18970000
C        1.58150000      -3.79620000       2.51130000
C        2.29230000      -3.94060000       3.84890000
O        1.27730000      -4.72570000       1.81070000
H        1.10510000       1.88620000       0.42060000
H       -0.39700000       2.08760000      -0.50040000
H       -0.46220000       1.78300000       1.24550000
H       -1.00550000      -0.31240000      -0.05980000
H        0.55340000      -0.20990000      -0.87990000
H        1.61640000      -1.74860000       2.84360000
H        3.25100000      -3.41110000       3.84030000
H        1.68640000      -3.52150000       4.65940000
H        2.46530000      -4.99930000       4.03690000
