12
Properties=species:S:1:pos:R:3 gdb_5030=T pbc="F F F"
N        0.01960000       1.37500000       0.13720000
C       -0.05260000       0.00770000       0.04390000
C       -1.17760000      -0.73900000       0.01200000
O       -1.12350000      -2.10870000      -0.01970000
C        0.08690000      -2.67750000      -0.01690000
N        1.22160000      -2.08910000      -0.00590000
C        1.25600000      -0.69090000       0.00700000
O        2.29500000      -0.05860000      -0.02160000
H        0.94390000       1.72060000      -0.08760000
H       -0.74870000       1.92290000      -0.21530000
H       -2.19590000      -0.37590000       0.01430000
H        0.00370000      -3.76040000      -0.02920000
