17
Properties=species:S:1:pos:R:3 gdb_33924=T pbc="F F F"
C       -0.01520000      -1.16030000       0.07680000
C        0.00500000       0.03900000       0.00180000
C       -0.03420000       1.47950000      -0.08080000
C        0.56190000       2.13330000      -1.28180000
N        1.30260000       2.13430000      -0.00210000
C        1.32540000       3.38710000       0.68720000
N        0.36290000       4.09410000       1.10700000
C       -0.99930000       3.65010000       0.82240000
C       -1.16810000       2.12940000       0.69970000
H       -0.01460000      -2.22040000       0.14100000
H        0.99900000       1.51700000      -2.06060000
H        0.13580000       3.07510000      -1.61590000
H        2.34430000       3.73150000       0.86750000
H       -1.65160000       4.02700000       1.61650000
H       -1.32930000       4.15370000      -0.09600000
H       -2.13200000       1.87980000       0.24440000
H       -1.16730000       1.68560000       1.70120000
