20
Properties=species:S:1:pos:R:3 gdb_98679=T pbc="F F F"
C        0.09830000       1.56080000      -0.48510000
C       -0.03880000       0.10770000      -0.08280000
C       -1.26760000      -0.59470000      -0.62850000
N        1.21430000      -0.63500000      -0.00270000
C        0.48100000      -0.37900000       1.25550000
C        1.11010000       0.51720000       2.26530000
O        1.93810000       1.36930000       2.01320000
C        0.64470000       0.34750000       3.70780000
O        1.24770000       1.28300000       4.54610000
H        1.01050000       1.99260000      -0.07480000
H        0.13600000       1.63620000      -1.57750000
H       -0.76220000       2.14320000      -0.13870000
H       -1.24680000      -0.59510000      -1.72440000
H       -1.32480000      -1.63390000      -0.28870000
H       -2.18530000      -0.08480000      -0.31740000
H        1.07790000      -1.60690000      -0.27330000
H       -0.07970000      -1.20400000       1.69220000
H       -0.45510000       0.43430000       3.73210000
H        0.87600000      -0.68680000       4.01870000
H        1.84970000       1.78010000       3.96710000
