25
Properties=species:S:1:pos:R:3 gdb_123150=T pbc="F F F"
C        0.02750000       1.41040000       0.03290000
O        0.02910000       0.00500000       0.01260000
C       -1.27060000      -0.54620000       0.01440000
C       -1.15980000      -2.06450000      -0.01350000
C       -2.52530000      -2.75730000      -0.00630000
C       -2.42540000      -4.28530000      -0.03920000
C       -3.78660000      -4.98840000       0.04340000
C       -3.66460000      -6.50870000      -0.06480000
O       -4.50010000      -4.61370000       1.22210000
H        1.06930000       1.74120000       0.03030000
H       -0.48080000       1.83360000      -0.84880000
H       -0.46830000       1.80790000       0.93340000
H       -1.82510000      -0.21810000       0.91160000
H       -1.84030000      -0.18600000      -0.86080000
H       -0.58900000      -2.35560000      -0.90410000
H       -0.56820000      -2.38540000       0.85290000
H       -3.09450000      -2.46310000       0.88290000
H       -3.11460000      -2.41830000      -0.86980000
H       -1.91370000      -4.60770000      -0.95570000
H       -1.79920000      -4.63420000       0.79650000
H       -4.41950000      -4.62370000      -0.77630000
H       -3.02990000      -6.90500000       0.73830000
H       -4.64960000      -6.97610000       0.01690000
H       -3.21550000      -6.80520000      -1.01830000
H       -4.01190000      -4.96130000       1.97720000
