17
Properties=species:S:1:pos:R:3 gdb_81150=T pbc="F F F"
N        0.25390000       1.44030000       0.16560000
C        0.07810000       0.01650000       0.02910000
C       -1.36530000      -0.62870000      -0.05230000
C       -1.38550000      -0.18940000      -1.54960000
C        0.11680000      -0.56650000      -1.42480000
O        0.08420000      -1.98250000      -1.19860000
C       -0.97500000      -2.09870000      -0.20780000
C        1.11760000      -0.19940000      -2.40360000
N        1.90040000       0.14210000      -3.18130000
H       -0.45690000       1.97390000      -0.32260000
H        0.20810000       1.70650000       1.14310000
H        0.77800000      -0.48750000       0.70100000
H       -2.16030000      -0.37520000       0.64730000
H       -1.97030000      -0.77780000      -2.25890000
H       -1.56310000       0.87510000      -1.70020000
H       -0.57440000      -2.54520000       0.70890000
H       -1.77480000      -2.73670000      -0.59960000
