20
Properties=species:S:1:pos:R:3 gdb_6760=T pbc="F F F"
C        0.47050000       1.39460000       0.01840000
O        0.62100000      -0.00490000       0.03630000
C        0.12360000      -0.60640000      -1.14520000
C        0.29690000      -2.05140000      -1.08830000
C        0.42400000      -3.24860000      -1.06460000
C        0.60330000      -4.69990000      -1.01690000
C        1.72880000      -5.15580000      -1.96630000
C        0.86170000      -5.17220000       0.42810000
H        1.01830000       1.85640000      -0.81910000
H       -0.58750000       1.69340000      -0.06040000
H        0.87580000       1.77600000       0.95830000
H       -0.94530000      -0.36070000      -1.27670000
H        0.64690000      -0.19940000      -2.02880000
H       -0.33260000      -5.16490000      -1.35790000
H        1.52960000      -4.84010000      -2.99390000
H        2.68760000      -4.72630000      -1.65990000
H        1.81990000      -6.24670000      -1.95090000
H        0.04700000      -4.87160000       1.09190000
H        0.95150000      -6.26280000       0.45880000
H        1.78960000      -4.73910000       0.81380000
