21
Properties=species:S:1:pos:R:3 gdb_77013=T pbc="F F F"
C        0.61820000       0.78510000      -1.97770000
N        0.48180000      -0.25610000      -0.97070000
C        1.57080000      -0.56920000      -0.05010000
C        2.90460000       0.17290000      -0.03920000
C        3.79390000      -0.27260000      -1.11420000
N        4.48790000      -0.63060000      -1.96600000
C        0.29680000       0.04640000       0.45450000
C        0.25760000       1.47640000       0.96630000
C       -0.70780000      -0.86010000       1.14400000
H        1.17410000       1.68390000      -1.67310000
H        1.12240000       0.36090000      -2.85110000
H       -0.38190000       1.10360000      -2.28740000
H        1.70850000      -1.63990000       0.10230000
H        2.78330000       1.25500000      -0.12250000
H        3.40670000      -0.01100000       0.91820000
H        0.95780000       2.14820000       0.46810000
H       -0.74680000       1.89360000       0.83200000
H        0.47830000       1.50070000       2.03890000
H       -0.51070000      -0.91960000       2.22050000
H       -1.72640000      -0.47800000       1.01070000
H       -0.66840000      -1.86710000       0.72300000
