16
Properties=species:S:1:pos:R:3 gdb_74821=T pbc="F F F"
C        0.02130000       1.45960000       0.04940000
C        0.00820000      -0.03140000      -0.03310000
N       -0.00860000      -0.70400000      -1.13100000
C        0.01810000      -2.09350000      -0.80940000
C        1.20010000      -2.64750000      -0.06070000
C        0.01650000      -2.17910000       0.75750000
N        0.06220000      -0.78780000       1.13340000
C       -0.76810000      -3.06940000       1.55260000
N       -1.40630000      -3.78550000       2.20100000
H        0.97630000       1.81980000       0.44560000
H       -0.13130000       1.87600000      -0.94600000
H       -0.76880000       1.82310000       0.71610000
H       -0.56490000      -2.75930000      -1.43530000
H        1.34640000      -3.71990000      -0.11670000
H        2.10460000      -2.05220000       0.00740000
H       -0.40390000      -0.48290000       1.97440000
