20
Properties=species:S:1:pos:R:3 gdb_60901=T pbc="F F F"
C        0.16340000       1.48330000      -0.26510000
C        0.01260000      -0.00770000       0.05130000
C        0.39220000      -0.89040000      -1.12940000
O        0.68280000      -0.47350000      -2.22240000
C        0.77230000      -0.40630000       1.29900000
C        2.18900000      -0.82910000       1.30770000
N        1.16240000      -1.84130000       1.63440000
C        0.78020000      -1.56250000       3.06420000
C        0.29710000      -0.12790000       2.72770000
H        1.21020000       1.73110000      -0.46160000
H       -0.41100000       1.74690000      -1.15580000
H       -0.18520000       2.09620000       0.57120000
H       -1.05080000      -0.23710000       0.23750000
H        0.37070000      -1.97810000      -0.90970000
H        2.67170000      -1.00750000       0.35080000
H        2.86110000      -0.48940000       2.09380000
H       -0.01870000      -2.23710000       3.37700000
H        1.61840000      -1.65720000       3.76220000
H        0.76610000       0.71320000       3.24590000
H       -0.78790000      -0.02300000       2.80110000
