15
Properties=species:S:1:pos:R:3 gdb_36123=T pbc="F F F"
N       -0.04600000      -1.14340000       0.39040000
C       -0.01820000      -0.02890000       0.08870000
C        0.01930000       1.38790000      -0.28460000
C        1.39550000       1.99450000      -0.16490000
C        2.04400000       2.38610000       1.12860000
C        1.76950000       3.45070000       0.08090000
N        2.84970000       3.73700000      -0.83350000
C        3.07160000       2.65060000      -1.45530000
O        2.28860000       1.56890000      -1.18920000
H       -0.34490000       1.49510000      -1.31230000
H       -0.67240000       1.93720000       0.36280000
H        1.40220000       2.39140000       2.00300000
H        3.07210000       2.09190000       1.30900000
H        1.06880000       4.25200000       0.28360000
H        3.83480000       2.48350000      -2.20470000
