17
Properties=species:S:1:pos:R:3 gdb_72950=T pbc="F F F"
C        0.00470000       1.53330000       0.00660000
C        0.03130000       0.01410000       0.07360000
C       -1.12470000      -0.64760000      -0.47370000
C       -2.09270000      -1.16780000      -0.96270000
C        1.32890000      -0.77880000      -0.15410000
O        2.45720000      -0.03520000       0.29730000
C        1.96160000      -0.05760000       1.66500000
C        0.68500000      -0.76650000       1.21460000
O       -0.03380000      -1.66550000       1.96220000
H        0.99650000       1.94490000       0.20430000
H       -0.30040000       1.85610000      -0.99240000
H       -0.70650000       1.94620000       0.72820000
H       -2.95280000      -1.62960000      -1.37980000
H        1.46110000      -1.50990000      -0.94210000
H        2.59800000      -0.69500000       2.29150000
H        1.88330000       0.94050000       2.10750000
H        0.51970000      -2.43420000       2.14140000
