16
Properties=species:S:1:pos:R:3 gdb_14620=T pbc="F F F"
O        0.27100000       0.05440000      -0.25560000
C        0.30320000       1.24470000      -0.33290000
O        0.77620000       2.02840000       0.65440000
C        0.80840000       3.44330000       0.43630000
C        2.23970000       3.91540000       0.20650000
C        2.31790000       5.44950000       0.07290000
C        3.67720000       5.92430000      -0.15080000
C        4.80630000       6.29130000      -0.33550000
H       -0.05410000       1.82610000      -1.20670000
H        0.16500000       3.70650000      -0.41450000
H        0.38110000       3.90300000       1.33320000
H        2.86560000       3.58380000       1.04040000
H        2.64010000       3.44630000      -0.69860000
H        1.67540000       5.78230000      -0.75350000
H        1.91190000       5.91810000       0.97930000
H        5.80080000       6.62600000      -0.49800000
