17
Properties=species:S:1:pos:R:3 gdb_111353=T pbc="F F F"
O        0.00840000       1.50730000      -0.09080000
C        0.07930000       0.09580000       0.05520000
C       -1.29920000      -0.54990000       0.08500000
C       -2.08740000      -0.59330000      -1.24690000
O       -1.33110000      -1.40300000      -2.15810000
C       -2.18810000      -2.06200000      -1.21170000
C       -1.41180000      -2.10000000       0.09640000
C       -0.58040000      -3.15240000       0.67570000
O       -1.86510000      -2.81020000       1.22890000
H       -0.25700000       1.69480000      -0.99650000
H        0.68010000      -0.36480000      -0.74060000
H        0.59280000      -0.08280000       1.00610000
H       -1.90680000      -0.13320000       0.89440000
H       -2.76400000       0.13960000      -1.67010000
H       -2.94270000      -2.74240000      -1.58810000
H       -0.52390000      -4.12660000       0.19280000
H        0.27340000      -2.88960000       1.29790000
