22
Properties=species:S:1:pos:R:3 gdb_109616=T pbc="F F F"
C       -1.62780000       0.16050000      -3.57460000
C       -0.85390000      -0.31650000      -2.33780000
C       -1.78210000      -0.73630000      -1.21370000
N       -2.36460000      -2.06760000      -1.07090000
C       -2.05580000      -3.14070000      -2.00280000
C       -1.36180000      -1.63560000      -0.07360000
C        0.03530000      -2.24020000      -0.01430000
C       -1.91320000      -1.37500000       1.23920000
C       -2.33470000      -1.14970000       2.34290000
H       -0.94440000       0.50480000      -4.35670000
H       -2.24240000      -0.64240000      -3.99420000
H       -2.29620000       0.99090000      -3.32370000
H       -0.17400000      -1.12410000      -2.62110000
H       -0.22010000       0.49960000      -1.96780000
H       -2.49290000       0.04830000      -0.95020000
H       -1.04510000      -3.13450000      -2.43350000
H       -2.19720000      -4.09830000      -1.49190000
H       -2.77280000      -3.09580000      -2.82910000
H        0.47200000      -2.40230000      -0.99990000
H        0.70020000      -1.57540000       0.54490000
H        0.00940000      -3.19970000       0.51170000
H       -2.72410000      -0.95400000       3.31100000
