15
Properties=species:S:1:pos:R:3 gdb_128261=T pbc="F F F"
C       -0.02720000       1.45570000      -0.00310000
N        0.02930000       0.00530000       0.04630000
C        0.63250000      -0.66410000       1.05190000
N        1.19120000       0.01630000       2.02530000
C        1.80350000      -0.67530000       3.04570000
O        2.35690000      -0.18330000       4.00390000
N        1.76340000      -2.08890000       2.93200000
N        1.20390000      -2.79580000       1.95640000
C        0.63710000      -2.11280000       1.01320000
H        0.97910000       1.88460000      -0.02040000
H       -0.56380000       1.75280000      -0.90550000
H       -0.54280000       1.85570000       0.87510000
H       -0.39570000      -0.52450000      -0.69420000
H        2.20600000      -2.62000000       3.66850000
H        0.17470000      -2.67330000       0.20790000
