14
Properties=species:S:1:pos:R:3 gdb_24540=T pbc="F F F"
O       -0.02800000       1.35020000       0.01010000
C        1.11570000       2.04040000       0.00220000
C        2.35060000       1.46710000      -0.01330000
C        2.47860000       0.04720000      -0.02210000
C        1.33700000      -0.69750000      -0.01440000
C        0.96720000      -2.08120000      -0.01770000
N       -0.34330000      -2.22000000      -0.00570000
C       -0.93110000      -0.95400000       0.00690000
C        0.04570000      -0.00900000       0.00220000
H        0.93730000       3.10810000       0.00960000
H        3.21940000       2.11180000      -0.01870000
H        3.46440000      -0.40800000      -0.03430000
H        1.63450000      -2.93340000      -0.02870000
H       -2.00340000      -0.83710000       0.01810000
