11
Properties=species:S:1:pos:R:3 gdb_130=T pbc="F F F"
C       -0.04700000       1.35690000       0.15620000
C        0.25370000      -0.06630000      -0.28660000
O        1.16600000      -0.69500000       0.62600000
C        0.68820000      -1.64800000       1.44520000
O        1.36220000      -2.20080000       2.26120000
H        0.87780000       1.93150000       0.25430000
H       -0.68680000       1.85220000      -0.58090000
H       -0.56170000       1.36650000       1.12160000
H       -0.66560000      -0.66170000      -0.35990000
H        0.74220000      -0.08210000      -1.26500000
H       -0.38580000      -1.86260000       1.27220000
