18
Properties=species:S:1:pos:R:3 gdb_41553=T pbc="F F F"
C       -0.00130000       1.49660000      -0.24720000
O        1.37980000       1.60890000       0.16860000
C        1.41500000       0.21990000       0.57550000
C        1.29900000       0.09590000       2.08350000
C       -0.11830000       0.09620000       2.49500000
C       -0.79940000      -0.53960000       1.25150000
C       -0.11950000      -1.85370000       1.70750000
N        0.73120000      -1.13110000       2.71900000
C       -0.02270000      -0.01860000       0.04550000
H       -0.67050000       2.10660000       0.37340000
H       -0.12950000       1.78380000      -1.29710000
H        2.26500000      -0.30830000       0.13310000
H        2.05640000       0.56320000       2.70360000
H       -0.56420000       0.66010000       3.30500000
H       -1.88600000      -0.52420000       1.16820000
H       -0.78620000      -2.52390000       2.25500000
H        0.43130000      -2.43040000       0.95450000
H       -0.12400000      -0.65780000      -0.83390000
