16
Properties=species:S:1:pos:R:3 gdb_27643=T pbc="F F F"
C        0.00900000       1.44120000       0.09740000
C        0.01050000      -0.03640000      -0.05320000
N       -0.05040000      -0.73660000      -1.13590000
C       -0.01440000      -2.06790000      -0.69870000
C       -0.05990000      -3.17610000      -1.57500000
C       -0.09760000      -4.13190000      -2.30640000
C        0.06860000      -2.08640000       0.66350000
C        0.13810000      -3.16310000       1.67790000
O        0.08510000      -0.78680000       1.08560000
H        0.92030000       1.78730000       0.59590000
H       -0.05190000       1.89550000      -0.89150000
H       -0.84310000       1.77500000       0.69860000
H       -0.13120000      -4.96810000      -2.95960000
H        1.05860000      -3.09880000       2.26900000
H       -0.70580000      -3.11250000       2.37520000
H        0.11520000      -4.13170000       1.17460000
