17
Properties=species:S:1:pos:R:3 gdb_82154=T pbc="F F F"
O       -0.10550000       1.40200000       0.30500000
C       -0.03000000       0.02280000       0.11590000
C       -1.35840000      -0.73630000       0.03860000
N       -2.04890000      -0.11470000      -1.12350000
C       -1.06750000      -1.21180000      -1.34120000
C        0.29650000      -0.52940000      -1.35500000
N        0.52030000       0.42250000      -2.40430000
C        1.73480000       0.62170000      -2.98460000
O        2.74040000      -0.00830000      -2.73510000
H       -0.87580000       1.69630000      -0.19920000
H        0.66910000      -0.37760000       0.85220000
H       -1.92530000      -1.20600000       0.83210000
H       -2.98400000      -0.51260000      -1.18220000
H       -1.36540000      -2.12800000      -1.83550000
H        1.14050000      -1.21810000      -1.33910000
H       -0.24730000       1.02750000      -2.65130000
H        1.70050000       1.43310000      -3.73850000
