18
Properties=species:S:1:pos:R:3 gdb_22379=T pbc="F F F"
C       -0.01960000       1.55150000       0.02960000
C        0.11810000       0.04600000       0.12890000
C        1.39180000      -0.74280000      -0.21520000
C        2.57670000      -0.06020000       0.35650000
C        2.02230000      -0.03720000       1.77720000
C        0.76610000      -0.72260000       1.22580000
O        0.16260000      -1.71100000       1.97230000
N        3.68770000       0.23530000      -0.17890000
O        4.56420000       0.79890000       0.77450000
H        0.88470000       2.06410000       0.36680000
H       -0.20000000       1.85220000      -1.00770000
H       -0.85860000       1.91240000       0.63490000
H       -0.74890000      -0.49200000      -0.26100000
H        1.39810000      -1.48990000      -0.99880000
H        2.59320000      -0.71230000       2.42130000
H        1.90750000       0.92620000       2.28200000
H       -0.75710000      -1.79170000       1.70200000
H        5.35880000       0.94730000       0.25130000
