17
Properties=species:S:1:pos:R:3 gdb_90639=T pbc="F F F"
C       -0.10930000       1.43660000      -0.06900000
C        0.02060000      -0.06990000       0.07620000
N        1.06440000      -0.64280000      -0.84010000
C        1.84120000      -1.11420000       0.29310000
C        0.84310000      -0.53460000       1.28670000
C        1.02540000      -2.02970000       1.21330000
O       -0.02720000      -2.80860000       0.73050000
C        1.77450000      -2.62260000       2.29900000
N        2.38700000      -3.12950000       3.13990000
H        0.86670000       1.92160000       0.02360000
H       -0.52120000       1.68670000      -1.05120000
H       -0.77810000       1.84160000       0.69840000
H       -0.95510000      -0.55730000      -0.00920000
H        0.72230000      -1.39070000      -1.43900000
H        2.92560000      -1.13350000       0.28720000
H        1.00360000       0.01790000       2.20330000
H        0.33710000      -3.62910000       0.37800000
