17
Properties=species:S:1:pos:R:3 gdb_32958=T pbc="F F F"
C        0.06080000       0.51540000      -0.38570000
O       -0.35630000       0.23120000       0.93480000
C        0.59790000      -0.50670000       1.68060000
C        0.72830000      -1.92920000       1.25010000
N        1.65900000      -2.49140000       0.55240000
C        1.25930000      -3.81470000       0.40100000
C        0.06920000      -3.98200000       1.04130000
N       -0.76100000      -5.05400000       1.31080000
O       -0.28750000      -2.79440000       1.59170000
H        0.24730000      -0.39680000      -0.96840000
H       -0.74480000       1.08370000      -0.85640000
H        0.98020000       1.12110000      -0.39540000
H        1.59640000      -0.05260000       1.61240000
H        0.25720000      -0.46010000       2.71920000
H        1.84600000      -4.53620000      -0.14320000
H       -0.62030000      -5.83040000       0.67980000
H       -1.73900000      -4.79810000       1.36030000
