19
Properties=species:S:1:pos:R:3 gdb_7354=T pbc="F F F"
C        0.04790000       1.50630000      -0.07520000
C        0.03880000      -0.00880000      -0.00030000
O        0.66260000      -0.50350000      -1.19660000
C        0.73320000      -1.85680000      -1.28620000
O        0.30590000      -2.60360000      -0.42900000
N        1.33630000      -2.25860000      -2.44470000
C        1.49000000      -3.67840000      -2.69540000
C        1.84290000      -1.35890000      -3.46290000
H        1.07060000       1.88930000      -0.13980000
H       -0.50700000       1.85870000      -0.94950000
H       -0.42010000       1.92470000       0.82080000
H        0.58970000      -0.37740000       0.87060000
H       -0.97820000      -0.40780000       0.06560000
H        0.96940000      -3.96870000      -3.61750000
H        2.55030000      -3.94030000      -2.80770000
H        1.06940000      -4.22760000      -1.85510000
H        1.67370000      -0.32700000      -3.16810000
H        2.91970000      -1.51440000      -3.61330000
H        1.34150000      -1.54180000      -4.42290000
