17
Properties=species:S:1:pos:R:3 gdb_91203=T pbc="F F F"
C       -0.03490000       1.56480000       0.05140000
C        0.01110000       0.05530000       0.07280000
C       -1.31140000      -0.76530000       0.30670000
O       -2.00460000      -1.28070000      -0.79090000
C       -0.55330000      -1.71420000       1.29700000
C        0.72690000      -0.88650000       1.08620000
O        1.52770000      -1.45610000      -0.00420000
C        0.90690000      -0.66110000      -0.93660000
O        1.07490000      -0.65960000      -2.11580000
H        0.96810000       2.00260000       0.06030000
H       -0.54180000       1.90750000      -0.85650000
H       -0.58610000       1.95280000       0.91370000
H       -2.03180000      -0.14210000       0.84430000
H       -1.38450000      -1.71400000      -1.38890000
H       -0.95320000      -1.69300000       2.31280000
H       -0.45430000      -2.75200000       0.97180000
H        1.35290000      -0.56770000       1.91690000
