16
Properties=species:S:1:pos:R:3 gdb_46210=T pbc="F F F"
O        0.04840000       0.01640000      -0.28460000
C        0.02490000       1.19720000      -0.09280000
C       -1.04950000       2.22580000       0.31690000
N        0.03180000       3.25780000       0.44420000
C        1.03410000       2.31000000      -0.07900000
C        2.48440000       2.34070000       0.37760000
C        3.20810000       1.14720000      -0.24370000
O        2.77720000       1.54590000      -1.58280000
C        2.13630000       2.68740000      -1.04460000
H       -1.78850000       2.41600000      -0.46990000
H       -1.57020000       2.01720000       1.25620000
H       -0.12280000       4.04280000      -0.18190000
H        2.79100000       2.95370000       1.21400000
H        4.29830000       1.20210000      -0.16500000
H        2.85000000       0.14850000       0.01940000
H        2.13150000       3.61070000      -1.61610000
