18
Properties=species:S:1:pos:R:3 gdb_55384=T pbc="F F F"
C       -0.33730000       1.49240000       0.09930000
C       -0.11250000       0.01870000       0.00390000
C        0.04630000      -0.72930000      -1.08720000
C        0.20440000      -2.18720000      -0.76570000
N        0.25930000      -2.20850000       0.71620000
H       -0.35010000      -2.91550000       1.10480000
H        1.81640000      -1.97630000       1.70210000
C       -0.05620000      -0.86340000       1.24050000
C        1.03730000      -0.39630000       2.23150000
O        2.06650000      -1.24120000       2.31370000
O        0.96130000       0.63340000       2.85000000
H        0.39510000       1.95880000       0.76440000
H       -0.28470000       1.96330000      -0.88540000
H       -1.32270000       1.70730000       0.53140000
H        0.05120000      -0.35720000      -2.10460000
H       -0.63630000      -2.78360000      -1.15140000
H        1.11820000      -2.61990000      -1.19520000
H       -1.00560000      -0.82430000       1.79350000
