14
Properties=species:S:1:pos:R:3 gdb_124247=T pbc="F F F"
C       -0.01900000       1.52430000      -0.00760000
C       -0.03970000       0.01550000       0.04580000
O       -0.05670000      -0.61710000       1.09490000
C       -0.03250000      -0.72410000      -1.20480000
C       -0.03360000      -2.08550000      -1.40600000
N       -0.12670000      -3.09370000      -0.50790000
N        0.02840000      -2.28740000      -2.76750000
N        0.06030000      -1.16850000      -3.36630000
O        0.01970000      -0.14300000      -2.43010000
H        0.86870000       1.87500000      -0.54470000
H       -0.88920000       1.89770000      -0.55810000
H       -0.02180000       1.92130000       1.00770000
H        0.01790000      -2.82440000       0.45470000
H        0.17540000      -4.00840000      -0.80060000
