15
Properties=species:S:1:pos:R:3 gdb_109033=T pbc="F F F"
O        0.00660000       1.42900000      -0.02420000
C       -0.00720000       0.01490000      -0.05840000
C       -1.41680000      -0.46120000       0.03580000
C       -2.54300000       0.26490000       0.09080000
C       -3.75150000      -0.62690000       0.07910000
O       -3.85160000      -1.40980000      -1.12970000
C       -3.27280000      -2.00990000       0.04300000
C       -1.74780000      -1.92090000       0.04880000
O       -0.96500000      -2.83970000       0.08790000
H        0.91950000       1.72220000      -0.09320000
H        0.43880000      -0.38100000      -0.98620000
H        0.57290000      -0.42470000       0.76940000
H       -2.58910000       1.34570000       0.08710000
H       -4.69390000      -0.33080000       0.52730000
H       -3.78400000      -2.87210000       0.45830000
