13
Properties=species:S:1:pos:R:3 gdb_125118=T pbc="F F F"
C       -0.02600000       1.54540000       0.02130000
C       -0.03470000       0.04900000       0.02350000
C       -1.14190000      -0.72260000      -0.10090000
O       -2.37080000      -0.21140000      -0.24200000
N       -1.11130000      -2.11110000      -0.09450000
N       -0.05300000      -2.75310000       0.02740000
O        1.14160000      -2.05520000       0.16190000
C        1.22460000      -0.64900000       0.16840000
O        2.31330000      -0.16060000       0.29140000
H        0.60750000       1.91920000      -0.78980000
H       -1.03290000       1.94630000      -0.09440000
H        0.40860000       1.92290000       0.95280000
H       -2.98930000      -0.95220000      -0.31090000
