23
Properties=species:S:1:pos:R:3 gdb_58232=T pbc="F F F"
C       -1.43450000      -0.38900000      -0.07760000
C        0.08160000      -0.27010000       0.13670000
C        0.54930000      -1.24700000       1.22390000
C        0.83640000      -0.44730000      -1.19760000
O        0.35760000       0.48490000      -2.17670000
C        2.34610000      -0.30240000      -1.09240000
O        2.75210000       0.95270000      -0.59620000
C        3.22670000      -1.45470000      -0.71390000
C        3.22190000      -0.94010000      -2.13860000
H       -1.78500000       0.28400000      -0.86310000
H       -1.70430000      -1.41010000      -0.37340000
H       -1.97570000      -0.15800000       0.84550000
H        0.31060000       0.74780000       0.48590000
H        0.41510000      -2.28760000       0.90410000
H        1.60070000      -1.10340000       1.48030000
H       -0.04160000      -1.10780000       2.13510000
H        0.61030000      -1.43930000      -1.61050000
H        0.27380000       1.33650000      -1.73400000
H        2.68280000       1.57570000      -1.32800000
H        4.08840000      -1.22040000      -0.09960000
H        2.76850000      -2.41570000      -0.50890000
H        2.75280000      -1.54080000      -2.91000000
H        4.08860000      -0.37470000      -2.46290000
