16
Properties=species:S:1:pos:R:3 gdb_68695=T pbc="F F F"
C        0.00190000       1.52560000       0.05370000
C       -0.05640000       0.03020000       0.05580000
C       -1.31260000      -0.84560000      -0.09590000
C       -0.69330000      -1.78360000       0.97710000
O       -1.12320000      -2.70210000       1.60810000
C        0.57050000      -0.94220000       1.08070000
N        1.11350000      -0.74050000      -0.28890000
C        1.39340000      -0.73410000       2.21970000
C        2.05240000      -0.56580000       3.21140000
H        0.98560000       1.86490000       0.38610000
H       -0.17110000       1.91460000      -0.95600000
H       -0.76190000       1.94650000       0.71440000
H       -2.23640000      -0.40470000       0.29200000
H       -1.50080000      -1.24630000      -1.09680000
H        0.91420000      -1.53300000      -0.89800000
H        2.64130000      -0.42080000       4.08310000
