14
Properties=species:S:1:pos:R:3 gdb_128949=T pbc="F F F"
N       -0.02700000      -1.15400000      -0.00540000
C        0.00160000      -0.00030000       0.00150000
C       -0.01180000       1.46390000       0.01090000
O        1.32140000       1.92760000       0.00020000
C        1.44960000       3.28510000       0.00520000
C        2.66390000       3.94310000      -0.00660000
N        2.35310000       5.26430000       0.00400000
N        1.03820000       5.51100000       0.02170000
C        0.46950000       4.30360000       0.02270000
H       -0.56550000       1.82160000      -0.86970000
H       -0.54750000       1.81040000       0.90700000
H        3.67530000       3.57410000      -0.02120000
H        2.99360000       6.03980000      -0.00020000
H       -0.60610000       4.22080000       0.03580000
