12
Properties=species:S:1:pos:R:3 gdb_17158=T pbc="F F F"
N       -0.01960000      -1.07730000       0.05280000
C       -0.02870000       0.07820000       0.04690000
C       -0.02880000       1.51500000       0.02290000
O       -0.70950000       2.27220000       1.05720000
C       -0.15620000       3.30500000       0.18860000
C        1.16510000       2.52050000      -0.12130000
N        1.02000000       2.56170000      -1.60820000
C       -0.39710000       2.50330000      -1.13680000
H       -0.33010000       4.35030000       0.43840000
H        2.11690000       2.51230000       0.40840000
H        1.24100000       3.49420000      -1.96390000
H       -1.26720000       2.47500000      -1.79140000
