18
Properties=species:S:1:pos:R:3 gdb_66517=T pbc="F F F"
C        0.15700000       1.49120000      -0.02350000
C       -0.10570000       0.02590000      -0.09140000
C        0.17950000      -1.01540000      -1.09400000
N        0.87670000      -1.03520000       0.33220000
C       -0.19320000      -1.64550000       1.28790000
C       -0.61570000      -3.14150000       1.13050000
C       -0.90710000      -3.14110000      -0.36920000
C       -1.01940000      -1.84840000      -0.73960000
C       -1.23010000      -0.88410000       0.47420000
H        1.14470000       1.71970000      -0.43540000
H       -0.59160000       2.05160000      -0.59450000
H        0.13100000       1.84920000       1.01180000
H        0.87620000      -1.04010000      -1.92250000
H        0.06770000      -1.32450000       2.29980000
H        0.17320000      -3.87410000       1.33590000
H       -1.44020000      -3.35590000       1.82570000
H       -0.49330000      -3.91010000      -1.01440000
H       -2.22890000      -0.60400000       0.80770000
