19
Properties=species:S:1:pos:R:3 gdb_32976=T pbc="F F F"
C        0.07070000       1.49860000      -0.08600000
C        0.03460000      -0.01560000      -0.01670000
O        0.69240000      -0.51910000      -1.19130000
C        0.74590000      -1.85490000      -1.28540000
N        0.27380000      -2.73680000      -0.44190000
C        0.59290000      -3.95910000      -1.01050000
C        1.25400000      -3.78870000      -2.18990000
N        1.35440000      -2.41250000      -2.37070000
C        1.97410000      -1.71340000      -3.47700000
H        1.10130000       1.86410000      -0.11270000
H       -0.44750000       1.86160000      -0.97820000
H       -0.42210000       1.92080000       0.79480000
H        0.54940000      -0.39850000       0.87100000
H       -0.99030000      -0.40120000       0.00990000
H        0.32240000      -4.88510000      -0.52700000
H        1.65880000      -4.47870000      -2.91140000
H        1.48530000      -1.96820000      -4.42290000
H        1.87580000      -0.64140000      -3.30660000
H        3.03720000      -1.96450000      -3.55140000
