19
Properties=species:S:1:pos:R:3 gdb_89029=T pbc="F F F"
C        0.10830000       1.46810000      -0.29990000
C        0.03090000       0.00760000       0.08030000
N        1.29460000      -0.74320000       0.15510000
C        0.49390000      -0.55990000       1.37750000
C        1.09790000       0.26630000       2.47630000
O        1.89090000      -0.62140000       3.28430000
C        2.41930000      -0.06070000       4.39880000
N        3.12270000      -1.00110000       5.10260000
O        2.26070000       1.08950000       4.73480000
H        0.99990000       1.94310000       0.11400000
H        0.15210000       1.57360000      -1.38910000
H       -0.77380000       2.01190000       0.05500000
H       -0.82030000      -0.51390000      -0.35750000
H        1.18180000      -1.68520000      -0.20830000
H       -0.05980000      -1.42210000       1.74670000
H        1.73520000       1.05930000       2.07910000
H        0.32630000       0.72660000       3.10190000
H        3.40320000      -1.84180000       4.62630000
H        3.73480000      -0.64370000       5.81600000
