18
Properties=species:S:1:pos:R:3 gdb_70079=T pbc="F F F"
C       -0.04310000       1.49390000       0.00440000
C        0.00840000      -0.01880000       0.00840000
N       -0.31990000      -0.75310000       1.23550000
C        1.09520000      -0.71970000       0.76870000
C        1.68120000      -1.96250000       0.22290000
C        1.26720000      -2.51430000      -0.92320000
C        0.18770000      -1.91820000      -1.74120000
O       -1.14930000      -1.90260000      -1.19760000
C       -0.45660000      -0.66990000      -1.27530000
H        0.50400000       1.90830000      -0.84980000
H       -1.07810000       1.84940000      -0.06070000
H        0.40130000       1.90560000       0.91590000
H       -0.42590000      -0.08850000       2.00030000
H        1.77660000      -0.09690000       1.34460000
H        2.49720000      -2.41480000       0.78000000
H        1.74140000      -3.41510000      -1.30120000
H        0.21400000      -2.13020000      -2.80920000
H       -0.84210000       0.02200000      -2.02520000
