15
Properties=species:S:1:pos:R:3 gdb_44109=T pbc="F F F"
O       -0.25070000       0.11510000       0.38760000
C       -0.13290000       1.27030000       0.10390000
N       -1.22570000       2.15770000      -0.25490000
C       -0.63780000       3.36390000       0.26870000
C       -0.60260000       3.75760000       1.55210000
C        0.85090000       3.81650000       2.00200000
C        1.59250000       3.21160000       0.80280000
C        0.72510000       3.36090000      -0.36660000
N        1.11710000       1.98560000      -0.03100000
H       -2.09340000       1.84320000       0.16360000
H       -1.40640000       3.58730000       2.25930000
H        1.28470000       4.80610000       2.20810000
H        0.94770000       3.23410000       2.92600000
H        2.67180000       3.29400000       0.74060000
H        0.95210000       3.76720000      -1.34660000
