17
Properties=species:S:1:pos:R:3 gdb_61738=T pbc="F F F"
C        0.29780000       1.45970000       0.03030000
C       -0.03880000      -0.04340000      -0.02230000
C       -1.55430000      -0.30290000      -0.06430000
C       -2.19470000      -0.03520000       1.27730000
O       -3.08950000       0.74390000       1.47880000
C        0.65890000      -0.72730000      -1.19930000
O        0.06780000      -1.35720000      -2.04860000
C        2.10710000      -0.59460000      -1.23610000
C        3.30710000      -0.50050000      -1.25530000
H        1.37540000       1.62270000       0.10150000
H       -0.07020000       1.96990000      -0.86560000
H       -0.17890000       1.92400000       0.89800000
H        0.38420000      -0.51200000       0.88040000
H       -2.04150000       0.31080000      -0.82630000
H       -1.72630000      -1.35550000      -0.32180000
H       -1.76190000      -0.63630000       2.11360000
H        4.36720000      -0.42490000      -1.28840000
