18
Properties=species:S:1:pos:R:3 gdb_83184=T pbc="F F F"
O        0.24480000       1.20350000       0.37290000
C        0.04100000      -0.15030000       0.12940000
C       -1.38110000      -0.67890000       0.03300000
C       -2.56160000       0.27410000       0.10320000
C       -3.11870000       0.48180000      -1.31570000
C       -2.06120000       1.01060000      -2.24900000
N       -2.30380000       1.88570000      -3.12740000
O       -0.77830000       0.52540000      -2.08170000
C       -0.52630000      -0.55360000      -1.20620000
H        0.29490000       1.64430000      -0.48510000
H        0.79160000      -0.79110000       0.58490000
H       -1.54530000      -1.69060000       0.39010000
H       -3.33870000      -0.12680000       0.75810000
H       -2.24050000       1.23190000       0.52480000
H       -3.48210000      -0.47940000      -1.70250000
H       -3.95430000       1.18240000      -1.34630000
H       -1.45620000       2.10020000      -3.65780000
H       -0.15680000      -1.42760000      -1.73260000
