19
Properties=species:S:1:pos:R:3 gdb_37029=T pbc="F F F"
C       -0.00150000       1.47400000      -0.07500000
C        1.29720000       0.73490000       0.04630000
C        2.23090000       0.73080000       1.22240000
C        2.07140000      -0.59510000       2.01570000
C        0.62450000      -1.01310000       2.19710000
C       -0.33900000      -0.77210000       1.29840000
C        0.00980000      -0.04520000       0.06220000
C        0.52740000      -0.64210000      -1.25360000
O        1.71270000       0.20340000      -1.22290000
H       -0.32930000       2.01070000       0.80900000
H       -0.26730000       1.93000000      -1.02490000
H        3.26440000       0.85650000       0.88470000
H        2.00040000       1.57540000       1.87930000
H        2.60940000      -1.39260000       1.48460000
H        2.55900000      -0.50680000       2.99220000
H        0.38130000      -1.54680000       3.11300000
H       -1.36220000      -1.09180000       1.48230000
H        0.80200000      -1.69940000      -1.17060000
H       -0.07190000      -0.48320000      -2.15830000
