14
Properties=species:S:1:pos:R:3 gdb_5282=T pbc="F F F"
N       -0.13670000       1.37140000       0.02300000
C        0.01770000      -0.00130000      -0.16400000
O        1.09710000      -0.50040000      -0.41930000
C       -1.22270000      -0.78160000      -0.07700000
C       -1.38190000      -2.14480000       0.08570000
C       -2.77000000      -2.41420000       0.12710000
C       -3.42750000      -1.20970000      -0.02370000
N       -2.48700000      -0.22450000      -0.12580000
H        0.74730000       1.85810000       0.08470000
H       -0.81310000       1.66830000       0.71150000
H       -0.56910000      -2.84690000       0.18170000
H       -3.24010000      -3.37700000       0.25440000
H       -4.48020000      -0.98030000      -0.07170000
H       -2.67370000       0.72820000      -0.38900000
