23
Properties=species:S:1:pos:R:3 gdb_92886=T pbc="F F F"
C        0.05490000       1.59340000      -0.00660000
C        0.03560000       0.06240000      -0.03210000
C        0.76570000      -0.49360000      -1.26590000
C        1.00650000      -1.97680000      -1.17330000
C        0.89660000      -2.66860000      -0.04160000
C        0.54320000      -2.06620000       1.30230000
C       -0.84310000      -2.54280000       1.76450000
O        1.52180000      -2.46360000       2.27830000
C        0.64170000      -0.53380000       1.24580000
H        1.07980000       1.97080000       0.08880000
H       -0.36940000       2.01130000      -0.92600000
H       -0.52330000       1.98430000       0.83730000
H       -1.01280000      -0.26110000      -0.09790000
H        0.19720000      -0.26320000      -2.17650000
H        1.73140000       0.02230000      -1.38860000
H        1.29340000      -2.48810000      -2.08990000
H        1.07660000      -3.74340000      -0.03930000
H       -0.89600000      -3.63840000       1.76270000
H       -1.03530000      -2.19140000       2.78310000
H       -1.63710000      -2.17790000       1.10650000
H        1.45590000      -3.41850000       2.38940000
H        1.70630000      -0.27560000       1.29890000
H        0.16670000      -0.10580000       2.13590000
