17
Properties=species:S:1:pos:R:3 gdb_38116=T pbc="F F F"
C       -0.13810000       1.44720000       0.12880000
N        1.23000000       0.90840000      -0.10140000
C        1.91460000       0.57150000       1.10420000
N        1.49520000      -0.39100000       1.82590000
C        0.25730000      -0.89070000       1.20290000
C        0.31700000      -2.33810000       0.63720000
C       -0.14610000      -2.18110000      -0.79550000
C       -0.29260000      -0.90720000      -1.16620000
C        0.04350000      -0.00760000      -0.03960000
H       -0.37060000       1.82140000       1.12400000
H       -0.51570000       2.05430000      -0.68940000
H        2.81570000       1.13140000       1.34080000
H       -0.55050000      -0.81300000       1.93770000
H        1.34000000      -2.72950000       0.68370000
H       -0.31080000      -3.03330000       1.20500000
H       -0.31080000      -3.03580000      -1.44220000
H       -0.58000000      -0.55400000      -2.14860000
