16
Properties=species:S:1:pos:R:3 gdb_19849=T pbc="F F F"
C        0.03560000       1.41590000      -0.28980000
C        1.31720000       0.76250000       0.12820000
C        0.00060000      -0.06100000       0.05210000
C        0.54710000      -0.75480000      -1.16870000
C        0.38400000      -1.07110000      -2.44660000
C        1.68890000      -0.68700000      -3.15140000
O        2.38630000       0.18430000      -2.23580000
C        1.90850000      -0.17650000      -0.95280000
H       -0.40130000       2.07460000       0.45500000
H       -0.11870000       1.72810000      -1.31770000
H        1.85480000       1.07990000       1.01290000
H       -0.60420000      -0.46330000       0.85330000
H       -0.49430000      -1.41670000      -2.97630000
H        2.31840000      -1.55780000      -3.40030000
H        1.50440000      -0.13460000      -4.08060000
H        2.60370000      -0.87320000      -0.45520000
