17
Properties=species:S:1:pos:R:3 gdb_77284=T pbc="F F F"
C       -0.17090000       1.59810000      -0.10010000
C       -0.04470000       0.09060000      -0.01650000
C        1.21780000      -0.61230000      -0.35480000
O        2.30980000       0.20460000      -0.71380000
C        3.52660000      -0.39080000      -0.77070000
O        4.51210000       0.20870000      -1.06860000
C        0.74640000      -0.62140000       1.09830000
C        1.46930000       0.14720000       2.14150000
O        1.54280000      -0.21520000       3.29120000
H        0.78430000       2.10340000       0.04750000
H       -0.54120000       1.88180000      -1.09010000
H       -0.88100000       1.96970000       0.64450000
H       -0.94680000      -0.44540000      -0.29720000
H        1.18040000      -1.55330000      -0.89680000
H        3.48940000      -1.46780000      -0.52210000
H        0.33870000      -1.55620000       1.46850000
H        1.95120000       1.08780000       1.80670000
