20
Properties=species:S:1:pos:R:3 gdb_70685=T pbc="F F F"
C        0.06310000       1.53560000       0.02420000
C        0.05800000       0.02120000      -0.00410000
C       -0.86410000      -0.70760000       0.96400000
C        0.62140000      -0.75640000       1.17880000
C        1.37010000      -2.05970000       0.91860000
C        1.78600000      -2.14900000      -0.54350000
O        0.69000000      -1.86450000      -1.42660000
C        0.17890000      -0.59230000      -1.36040000
N       -0.23100000       0.00870000      -2.39750000
H        1.00720000       1.93490000      -0.36030000
H       -0.74070000       1.93220000      -0.60010000
H       -0.07110000       1.90030000       1.04740000
H       -1.47210000      -0.09000000       1.61600000
H       -1.34840000      -1.61440000       0.61680000
H        1.00970000      -0.14080000       1.98400000
H        2.26700000      -2.11780000       1.54430000
H        0.74530000      -2.92170000       1.17760000
H        2.60470000      -1.44780000      -0.75530000
H        2.12080000      -3.15350000      -0.81340000
H       -0.06860000      -0.57670000      -3.21940000
