15
Properties=species:S:1:pos:R:3 gdb_125762=T pbc="F F F"
C       -0.01200000       1.49240000      -0.01600000
C       -0.02630000       0.00040000       0.01380000
N       -0.05430000      -0.68300000      -1.10070000
O       -0.06050000      -2.05140000      -0.70200000
C       -0.03530000      -2.11130000       0.62690000
N       -0.09050000      -3.34180000       1.20460000
C       -0.00900000      -0.84420000       1.17230000
C        0.03330000      -0.50380000       2.53620000
C        0.07650000      -0.22690000       3.70960000
H        0.87940000       1.87940000       0.48790000
H       -0.02150000       1.84830000      -1.04760000
H       -0.88330000       1.89630000       0.50930000
H        0.22530000      -4.11410000       0.63780000
H        0.19560000      -3.37600000       2.17120000
H        0.10400000       0.02590000       4.74020000
