23
Properties=species:S:1:pos:R:3 gdb_100670=T pbc="F F F"
C        0.00500000       1.55900000       0.14160000
C       -0.02380000       0.02640000       0.01180000
C       -1.48000000      -0.45880000       0.03240000
O       -2.04020000      -0.09540000       1.29140000
C        0.72590000      -0.50010000      -1.23860000
C        0.77860000      -2.04060000      -1.28600000
O        0.03090000      -0.00500000      -2.38490000
C        2.16550000       0.04380000      -1.28950000
O        2.71180000      -0.35770000      -2.54800000
H        0.98710000       1.93430000       0.44260000
H       -0.26610000       2.02330000      -0.81110000
H       -0.71390000       1.87000000       0.90170000
H        0.46410000      -0.41290000       0.89220000
H       -2.02720000       0.00490000      -0.80000000
H       -1.52760000      -1.54730000      -0.10070000
H       -2.98280000      -0.28030000       1.25980000
H       -0.20780000      -2.45510000      -1.50020000
H        1.45970000      -2.36320000      -2.07740000
H        1.13610000      -2.45710000      -0.33800000
H        0.64950000      -0.09740000      -3.12090000
H        2.15330000       1.13570000      -1.21680000
H        2.75810000      -0.35880000      -0.45460000
H        3.47640000       0.19190000      -2.73750000
