18
Properties=species:S:1:pos:R:3 gdb_82065=T pbc="F F F"
C        0.14940000       1.18780000       0.86130000
C       -0.01730000       0.26550000      -0.32150000
O        0.86340000       0.11360000      -1.15110000
C       -1.31270000      -0.51690000      -0.38930000
C       -1.67290000      -1.30870000      -1.68910000
O       -0.92600000      -1.13860000      -2.85430000
C       -1.52800000      -2.58540000      -0.85340000
C       -0.22730000      -2.66020000      -0.17050000
N       -1.27040000      -1.79990000       0.43580000
H        1.16310000       1.58840000       0.89230000
H       -0.57100000       2.01150000       0.79210000
H       -0.07710000       0.64610000       1.78660000
H       -2.14010000       0.09140000      -0.01580000
H       -2.72270000      -1.14350000      -1.94950000
H       -0.03990000      -0.85670000      -2.58130000
H       -2.22250000      -3.41910000      -0.86620000
H       -0.03820000      -3.54290000       0.43180000
H        0.65890000      -2.21480000      -0.61200000
