20
Properties=species:S:1:pos:R:3 gdb_110247=T pbc="F F F"
C        0.07030000       1.50910000      -0.19790000
C        0.00050000       0.02270000       0.17030000
C       -1.41830000      -0.52690000       0.09830000
C       -2.04180000      -0.85980000      -1.29750000
N       -1.11360000      -2.06570000      -1.32690000
C       -1.45230000      -3.18950000      -2.20310000
C       -1.63800000      -2.07250000       0.10310000
C       -3.02100000      -1.79530000      -0.54170000
O       -4.12520000      -2.23740000      -0.60660000
H        1.09250000       1.88820000      -0.10490000
H       -0.25360000       1.67820000      -1.23040000
H       -0.56950000       2.11520000       0.45340000
H        0.64910000      -0.56180000      -0.48580000
H        0.37080000      -0.11620000       1.19420000
H       -2.09610000       0.01870000       0.76230000
H       -2.18310000      -0.21850000      -2.16630000
H       -1.20140000      -2.91100000      -3.23100000
H       -0.82720000      -4.04300000      -1.92410000
H       -2.50660000      -3.50340000      -2.17310000
H       -1.31420000      -2.81270000       0.83380000
