14
Properties=species:S:1:pos:R:3 gdb_128531=T pbc="F F F"
C        0.01040000       1.42950000       0.00890000
O        0.02480000       0.00790000       0.00510000
C       -1.17510000      -0.59120000       0.01240000
C       -1.35330000      -1.97420000       0.01000000
N       -2.71160000      -2.16250000       0.01980000
N       -3.39910000      -1.02720000       0.02790000
C       -2.48140000      -0.05580000       0.02350000
C       -0.42390000      -3.03190000       0.00030000
N        0.32530000      -3.91620000      -0.00760000
H        1.05390000       1.74480000       0.00200000
H       -0.49660000       1.82170000      -0.88120000
H       -0.48320000       1.81700000       0.90860000
H       -3.19750000      -3.04440000       0.02120000
H       -2.79130000       0.97670000       0.02850000
