17
Properties=species:S:1:pos:R:3 gdb_116984=T pbc="F F F"
O       -0.49280000       1.22970000       0.00860000
C       -0.43280000      -0.13370000      -0.36830000
C       -0.96350000      -0.94190000       0.82200000
C       -0.95100000      -2.37700000       0.57780000
C       -0.92790000      -3.55940000       0.35140000
C       -0.92090000      -4.99010000       0.08500000
O       -1.85030000      -5.36810000      -0.95120000
C       -3.13610000      -5.52510000      -0.57540000
O       -4.00170000      -5.79850000      -1.34980000
H       -0.19110000       1.76310000      -0.73220000
H       -1.04940000      -0.34220000      -1.25490000
H        0.59570000      -0.45140000      -0.59600000
H       -0.35510000      -0.70430000       1.70310000
H       -1.98140000      -0.60260000       1.04820000
H        0.05450000      -5.32000000      -0.28170000
H       -1.13750000      -5.55660000       1.00030000
H       -3.28900000      -5.38560000       0.51250000
