15
Properties=species:S:1:pos:R:3 gdb_48021=T pbc="F F F"
O       -0.13390000       0.25600000      -0.73290000
C        0.13360000       1.07270000       0.11810000
C        1.33430000       1.86660000       0.14290000
C        2.33020000       2.54910000       0.19390000
C        3.53580000       3.38350000       0.25890000
O        4.49060000       3.02380000      -0.73860000
C        4.65290000       4.09260000      -1.67280000
C        3.86000000       5.23370000      -1.10410000
C        3.22810000       4.84560000      -0.00490000
H       -0.55360000       1.27160000       0.96610000
H        3.99610000       3.23380000       1.24830000
H        5.72360000       4.32140000      -1.76690000
H        4.29090000       3.79180000      -2.66830000
H        3.82560000       6.21590000      -1.55760000
H        2.56670000       5.42280000       0.62600000
