18
Properties=species:S:1:pos:R:3 gdb_55656=T pbc="F F F"
C        0.12370000       1.56860000       0.00770000
C        0.09170000       0.03810000       0.06160000
O        0.91030000      -0.35590000       1.14600000
C       -1.34840000      -0.49340000       0.20370000
C       -1.37790000      -2.01360000       0.31010000
N       -2.42640000      -2.63650000      -0.28330000
O       -0.53050000      -2.63540000       0.94240000
C        0.72450000      -0.49790000      -1.22890000
O        0.12160000      -1.02490000      -2.12990000
H        1.15290000       1.91650000      -0.12070000
H       -0.48530000       1.95390000      -0.81510000
H       -0.25080000       1.97010000       0.95360000
H        0.69120000      -1.29300000       1.31090000
H       -1.77420000      -0.08710000       1.12790000
H       -1.96020000      -0.14720000      -0.63280000
H       -2.98080000      -2.16320000      -0.97570000
H       -2.41650000      -3.64480000      -0.29710000
H        1.82880000      -0.36600000      -1.25210000
