24
Properties=species:S:1:pos:R:3 gdb_57542=T pbc="F F F"
C        0.59140000       1.19830000       0.43980000
C        0.09910000      -0.11790000      -0.17830000
C        0.75270000      -1.32900000       0.50710000
C       -1.42700000      -0.20920000      -0.05080000
O        0.30420000      -0.16100000      -1.60600000
C        1.52060000       0.25050000      -2.19210000
C        2.67300000      -0.72610000      -2.07100000
C        4.04040000      -0.28510000      -2.43770000
N        3.71150000      -0.59000000      -1.03350000
H        1.68290000       1.27470000       0.45270000
H        0.18920000       2.05860000      -0.10430000
H        0.25410000       1.26530000       1.47830000
H        0.48380000      -1.35390000       1.56860000
H        0.39770000      -2.25480000       0.04480000
H        1.84230000      -1.30640000       0.43510000
H       -1.90270000       0.65670000      -0.51990000
H       -1.78970000      -1.11010000      -0.55310000
H       -1.72940000      -0.25030000       0.99980000
H        1.27670000       0.36650000      -3.25560000
H        1.84440000       1.23950000      -1.83020000
H        2.39570000      -1.75960000      -2.26730000
H        4.73070000      -0.97620000      -2.91230000
H        4.18030000       0.75600000      -2.72090000
H        3.57630000       0.28280000      -0.52710000
