18
Properties=species:S:1:pos:R:3 gdb_93055=T pbc="F F F"
C       -0.03710000       1.47310000       0.09490000
N        0.00600000       0.02200000       0.03370000
C       -1.25250000      -0.72120000       0.04090000
C       -1.43410000      -1.55920000       1.28030000
C       -0.59860000      -2.57200000       1.54620000
C        0.53180000      -2.92430000       0.70060000
C        1.24280000      -2.09880000      -0.09210000
C        1.21180000      -0.60840000      -0.14240000
O        2.26190000       0.00070000      -0.30750000
H        0.98810000       1.83780000       0.04370000
H       -0.60840000       1.88700000      -0.74560000
H       -0.49980000       1.81250000       1.02910000
H       -2.06170000       0.00420000      -0.06190000
H       -1.28700000      -1.37510000      -0.84270000
H       -2.26360000      -1.34010000       1.94550000
H       -0.77290000      -3.20100000       2.41530000
H        0.85040000      -3.96410000       0.74520000
H        2.09430000      -2.49620000      -0.63520000
