17
Properties=species:S:1:pos:R:3 gdb_23479=T pbc="F F F"
O        0.04510000       1.23930000       0.02740000
N        0.09850000      -0.15730000       0.15840000
C       -1.05630000      -0.66920000       0.04970000
C       -2.46680000      -0.21990000      -0.26830000
N       -2.86460000      -1.65730000      -0.47010000
C       -2.51380000      -2.13300000      -1.85560000
C       -1.22140000      -2.83510000      -1.33990000
O        0.00100000      -2.63920000      -1.98610000
C       -1.48450000      -2.11590000       0.00940000
H        0.96480000       1.49500000       0.15970000
H       -2.99320000       0.22720000       0.58220000
H       -2.59180000       0.43290000      -1.13850000
H       -3.27920000      -2.78680000      -2.28060000
H       -2.30910000      -1.32130000      -2.56410000
H       -1.35780000      -3.91570000      -1.24760000
H        0.30210000      -1.74220000      -1.79370000
H       -1.41210000      -2.68890000       0.93680000
