17
Properties=species:S:1:pos:R:3 gdb_4071=T pbc="F F F"
C        0.08270000       1.52680000      -0.09740000
C       -0.01600000       0.02960000       0.02350000
C       -0.09290000      -0.61210000       1.38740000
C        1.11490000      -0.31590000       2.25420000
C        1.64070000      -1.29790000       3.20950000
O        2.30560000      -1.04930000       1.96990000
N       -0.04520000      -0.77300000      -0.97050000
O        0.03810000      -0.09190000      -2.19580000
H        1.11350000       1.82940000      -0.31580000
H       -0.53420000       1.88200000      -0.92590000
H       -0.22800000       2.02200000       0.82600000
H       -0.98660000      -0.24120000       1.91060000
H       -0.19660000      -1.69240000       1.26060000
H        1.29140000       0.73930000       2.47140000
H        2.16730000      -0.96170000       4.10180000
H        1.15990000      -2.27180000       3.29410000
H       -0.01840000      -0.81410000      -2.83000000
