16
Properties=species:S:1:pos:R:3 gdb_130220=T pbc="F F F"
N        0.02910000       1.32650000       0.33720000
C        0.01890000      -0.03800000       0.08220000
N       -1.08520000      -0.77360000       0.00620000
N       -0.60970000      -2.01290000      -0.17370000
N        0.71080000      -2.13620000      -0.23830000
C        1.14230000      -0.88790000      -0.07140000
N        2.47910000      -0.47390000      -0.11190000
C        3.24640000      -0.49090000       1.14860000
C        3.51410000      -1.48610000       0.07690000
H        0.81090000       1.79080000      -0.10690000
H       -0.84680000       1.77380000       0.10140000
H       -1.22320000      -2.79400000      -0.32480000
H        3.91050000       0.35540000       1.29380000
H        2.73020000      -0.83910000       2.03900000
H        3.18330000      -2.50650000       0.24230000
H        4.38360000      -1.37490000      -0.56370000
