15
Properties=species:S:1:pos:R:3 gdb_26911=T pbc="F F F"
N        0.03230000       1.47370000       0.13860000
C        0.01270000       0.05710000       0.04120000
C       -1.12780000      -0.67110000       0.01760000
O       -2.35670000      -0.11980000       0.02930000
O       -1.15970000      -2.01880000       0.02090000
C        0.01370000      -2.80550000      -0.02410000
N       -0.07730000      -4.07170000      -0.06540000
C        1.24200000      -2.04990000      -0.00620000
C        1.23160000      -0.69720000       0.03870000
H        0.49050000       1.89830000      -0.66180000
H       -0.90860000       1.84570000       0.19030000
H       -3.00460000      -0.83500000       0.02930000
H       -1.05110000      -4.37250000      -0.06440000
H        2.15620000      -2.62710000      -0.01770000
H        2.16420000      -0.14250000       0.07710000
