19
Properties=species:S:1:pos:R:3 gdb_102022=T pbc="F F F"
C       -0.17070000       1.53870000       0.11170000
C       -0.00510000       0.01760000       0.05510000
C        0.68770000      -0.45970000      -1.22900000
C        2.14900000       0.00350000      -1.28910000
O        2.74690000       0.22950000      -2.30620000
C        0.72630000      -1.98540000      -1.33220000
O        0.76130000      -2.70350000      -0.35650000
C        0.74960000      -2.58680000      -2.72520000
O        0.91120000      -3.97190000      -2.68870000
H        0.79420000       2.05630000       0.06980000
H       -0.77520000       1.90400000      -0.72550000
H       -0.66650000       1.84080000       1.03850000
H        0.57150000      -0.34130000       0.91450000
H       -0.98240000      -0.46980000       0.12980000
H        0.20360000      -0.06570000      -2.12980000
H        2.63670000       0.08630000      -0.29250000
H       -0.19430000      -2.29890000      -3.22220000
H        1.55470000      -2.09830000      -3.29730000
H        0.88530000      -4.21060000      -1.74920000
