22
Properties=species:S:1:pos:R:3 gdb_61584=T pbc="F F F"
C        0.22860000       1.73460000      -0.11360000
C        0.05500000       0.21740000       0.03580000
C        0.61530000      -0.57680000      -1.15510000
N       -0.08290000      -0.26490000      -2.39800000
C        0.56500000       0.67010000      -3.31390000
C        0.52250000      -0.78520000      -3.61830000
C        0.70880000      -0.26460000       1.31350000
C       -0.04070000      -0.45120000       2.56150000
O        0.35420000      -1.57340000       1.76930000
H        1.28730000       2.00640000      -0.20380000
H       -0.28990000       2.09950000      -1.00290000
H       -0.17700000       2.26270000       0.75550000
H       -1.01520000      -0.01350000       0.09990000
H        1.70610000      -0.40410000      -1.23970000
H        0.47300000      -1.64350000      -0.95010000
H       -0.09330000       1.36360000      -3.82990000
H        1.52750000       1.08770000      -3.02160000
H        1.45700000      -1.33740000      -3.52750000
H       -0.16760000      -1.17770000      -4.35980000
H        1.77720000      -0.04830000       1.39780000
H        0.46410000      -0.35570000       3.52200000
H       -1.11050000      -0.24570000       2.57750000
