12
Properties=species:S:1:pos:R:3 gdb_133361=T pbc="F F F"
N        0.00520000       1.31710000       0.00730000
C       -0.05760000      -0.01630000       0.00070000
N       -1.18980000      -0.67380000       0.00390000
C       -1.07710000      -2.01880000      -0.00400000
F       -2.22960000      -2.66150000      -0.00010000
N       -0.02100000      -2.76240000      -0.01400000
N        1.14270000      -2.04250000      -0.01700000
C        1.27220000      -0.68830000      -0.01060000
O        2.33340000      -0.07900000      -0.01370000
H        0.92290000       1.73550000       0.00430000
H       -0.83230000       1.87330000       0.01540000
H        1.98550000      -2.60000000      -0.02480000
