16
Properties=species:S:1:pos:R:3 gdb_90799=T pbc="F F F"
O       -0.02800000       1.45070000      -0.04490000
C        0.03400000       0.04290000       0.02220000
C        0.63760000      -0.53320000       1.33320000
C       -0.31520000      -1.66700000       1.67630000
C       -1.76340000      -1.39010000       1.96250000
N       -1.28180000      -1.93580000       0.60350000
C       -1.38760000      -0.52230000       0.03510000
C       -2.19360000      -0.12810000       1.28850000
O       -3.02830000       0.69580000       1.52670000
H        0.86400000       1.79100000      -0.16330000
H        0.56970000      -0.36990000      -0.84560000
H        1.65380000      -0.91040000       1.18970000
H        0.66530000       0.24190000       2.10420000
H        0.07250000      -2.56180000       2.15500000
H       -2.33690000      -1.98340000       2.66670000
H       -1.92500000      -0.46280000      -0.91030000
