17
Properties=species:S:1:pos:R:3 gdb_36326=T pbc="F F F"
C       -0.16090000      -1.26890000      -0.07180000
C       -0.08770000      -0.06950000      -0.04180000
C       -0.00440000       1.37620000      -0.00940000
C       -0.14540000       2.02530000       1.40470000
N        1.32220000       2.15280000       1.46210000
C        1.87090000       3.34550000       2.06830000
C        3.33820000       3.33810000       2.03600000
N        4.49220000       3.34580000       1.99240000
C        1.44120000       1.96890000       0.00260000
H       -0.22190000      -2.32870000      -0.09800000
H       -0.65920000       1.81140000      -0.76710000
H       -0.67040000       2.99270000       1.34980000
H       -0.58540000       1.41430000       2.19690000
H        1.52630000       4.28040000       1.58240000
H        1.54830000       3.39320000       3.11530000
H        2.25650000       1.31450000      -0.31260000
H        1.49170000       2.91660000      -0.55660000
