18
Properties=species:S:1:pos:R:3 gdb_31260=T pbc="F F F"
C        0.49650000       1.23390000       0.26860000
N       -0.22610000       0.07010000      -0.24060000
C        0.37530000      -0.71310000      -1.19800000
C        0.41580000      -2.06070000      -1.40180000
N       -0.12190000      -3.03860000      -0.54290000
C        0.84630000      -4.03840000      -0.07510000
N        1.07990000      -2.30460000      -2.60920000
C        1.40360000      -1.13880000      -3.04420000
O        1.00300000      -0.10290000      -2.24050000
H        1.43680000       0.97830000       0.78010000
H        0.72930000       1.90500000      -0.56070000
H       -0.15000000       1.76920000       0.96760000
H       -0.60140000      -0.52920000       0.48440000
H       -0.90470000      -3.51050000      -0.98540000
H        1.35070000      -4.57450000      -0.89100000
H        1.61190000      -3.54080000       0.52810000
H        0.33080000      -4.76510000       0.56000000
H        1.94860000      -0.86550000      -3.93310000
