23
Properties=species:S:1:pos:R:3 gdb_90291=T pbc="F F F"
C       -0.22450000       1.48740000      -0.20690000
C       -0.04220000      -0.01790000      -0.07380000
C        1.22130000      -0.57600000      -0.84720000
C        1.91310000      -0.56380000       0.49440000
C        2.96280000      -0.12110000       1.17690000
C        2.55100000       0.16420000       2.62490000
C        3.23120000       1.39960000       3.22230000
C        0.99050000       0.30000000       2.52220000
C        0.62910000      -0.52410000       1.27210000
H        0.70930000       2.02170000      -0.00010000
H       -0.53940000       1.75120000      -1.22220000
H       -0.98580000       1.86110000       0.48640000
H       -0.97570000      -0.53250000      -0.31980000
H        1.03910000      -1.58210000      -1.23930000
H        1.64350000       0.04230000      -1.64460000
H        3.95620000       0.09600000       0.79880000
H        2.79820000      -0.69640000       3.26590000
H        3.03680000       2.28710000       2.60920000
H        2.86120000       1.60200000       4.23330000
H        4.31670000       1.26730000       3.28610000
H        0.48250000      -0.03070000       3.43330000
H        0.73980000       1.35750000       2.37590000
H        0.23190000      -1.51460000       1.52620000
