17
Properties=species:S:1:pos:R:3 gdb_49439=T pbc="F F F"
O       -0.51010000       0.59900000       0.67240000
C        0.06270000       1.05170000      -0.28780000
C        1.24860000       1.98430000      -0.20940000
C        1.43040000       3.04560000      -1.29680000
C        0.50370000       4.20690000      -0.98570000
O       -0.62950000       3.96260000      -0.17980000
C       -0.13940000       3.63840000       1.13370000
C        1.27400000       3.12660000       0.87280000
C        1.78070000       4.09520000      -0.23230000
H       -0.24890000       0.78200000      -1.32380000
H        2.15100000       1.36690000      -0.12430000
H        1.87270000       2.89870000      -2.27550000
H        0.34780000       4.96470000      -1.74360000
H       -0.12380000       4.53740000       1.76760000
H       -0.80430000       2.89130000       1.57020000
H        1.88470000       2.95890000       1.75740000
H        2.58420000       4.81670000      -0.17890000
