16
Properties=species:S:1:pos:R:3 gdb_11805=T pbc="F F F"
N        0.07120000       1.32540000      -0.40650000
C        0.05000000      -0.08600000      -0.09770000
C        0.14510000      -0.59470000       1.34410000
N        0.96190000      -0.44900000       2.28370000
O       -1.05910000      -1.27450000       1.28740000
C       -1.31700000      -0.77020000      -0.04720000
C       -2.65000000      -0.24640000      -0.44690000
C       -2.09740000      -1.53560000      -1.04970000
H       -0.43470000       1.84740000       0.30340000
H        1.02670000       1.66790000      -0.39090000
H        0.75760000      -0.60440000      -0.75190000
H        0.65200000      -0.92940000       3.13050000
H       -3.46130000      -0.33920000       0.26660000
H       -2.66900000       0.64680000      -1.06240000
H       -1.75970000      -1.52810000      -2.08090000
H       -2.54700000      -2.46700000      -0.72330000
