16
Properties=species:S:1:pos:R:3 gdb_47417=T pbc="F F F"
O       -0.12030000       0.00370000      -0.17480000
C       -0.04870000       1.18520000      -0.02680000
O       -1.13230000       1.98630000       0.18420000
C       -0.68940000       3.32190000       0.38000000
O        0.65480000       3.38860000      -0.04110000
C        1.18000000       2.08060000      -0.03250000
C        2.27530000       1.73160000       1.02290000
N        3.09450000       1.14420000      -0.06000000
C        2.25420000       1.77730000      -1.10250000
H       -1.29490000       3.99630000      -0.23230000
H       -0.79210000       3.57600000       1.44510000
H        2.66620000       2.65590000       1.46810000
H        2.00430000       1.02640000       1.81510000
H        4.06660000       1.42880000      -0.06300000
H        1.95930000       1.10400000      -1.91300000
H        2.64020000       2.71580000      -1.52020000
