21
Properties=species:S:1:pos:R:3 gdb_104862=T pbc="F F F"
O        0.03130000       1.37950000      -0.05740000
C        0.00040000      -0.03570000       0.15180000
C       -1.44860000      -0.50690000       0.09880000
C       -2.29480000       0.16590000       1.18260000
O       -2.57890000       1.52440000       0.90780000
C       -2.04100000      -0.48140000      -1.34410000
C       -1.70130000      -1.98920000      -1.50160000
C       -1.53440000      -2.07470000       0.03390000
O       -0.51430000      -2.87130000       0.59140000
H        0.91840000       1.69970000       0.13000000
H        0.60420000      -0.53710000      -0.62160000
H        0.43040000      -0.29600000       1.12930000
H       -3.26500000      -0.34120000       1.25010000
H       -1.79980000       0.04270000       2.16290000
H       -1.73430000       1.93070000       0.67280000
H       -3.11530000      -0.28630000      -1.33290000
H       -1.57350000       0.21020000      -2.04660000
H       -2.44210000      -2.64420000      -1.96530000
H       -0.74460000      -2.14190000      -2.01490000
H       -2.46000000      -2.40620000       0.51550000
H        0.25620000      -2.82150000       0.01710000
