19
Properties=species:S:1:pos:R:3 gdb_93764=T pbc="F F F"
C       -0.06170000       1.54590000      -0.03760000
C        0.05110000       0.02690000       0.01140000
N        0.73840000      -0.47810000      -1.18020000
C        0.83230000      -1.92630000      -1.21250000
C        1.51670000      -2.43710000       0.03220000
N        2.04130000      -3.69790000      -0.06410000
C        1.50980000      -1.70490000       1.17220000
C        0.79860000      -0.44280000       1.27460000
O        0.74180000       0.20500000       2.30760000
H        0.92500000       1.99310000      -0.18810000
H       -0.71630000       1.86390000      -0.85650000
H       -0.46780000       1.91340000       0.90560000
H       -0.97000000      -0.40130000       0.10380000
H        0.26020000      -0.14960000      -2.01230000
H       -0.14820000      -2.44030000      -1.28690000
H        1.40930000      -2.22590000      -2.09730000
H        2.34270000      -4.02030000      -0.96980000
H        2.59670000      -4.03360000       0.70750000
H        2.00530000      -2.05780000       2.07220000
