15
Properties=species:S:1:pos:R:3 gdb_5554=T pbc="F F F"
N        0.07830000       1.43060000      -0.04070000
C       -0.01460000       0.03360000      -0.01210000
C       -1.13490000      -0.75950000       0.10730000
C       -2.58580000      -0.48030000       0.23590000
O       -3.29890000      -1.40600000      -0.58980000
N       -0.63620000      -2.05410000       0.17710000
C        0.71100000      -1.97840000       0.07800000
N        1.12540000      -0.73170000      -0.02520000
H        0.99460000       1.70630000      -0.37200000
H       -0.63640000       1.86740000      -0.60920000
H       -2.92280000      -0.58270000       1.28200000
H       -2.78040000       0.56260000      -0.05790000
H       -4.23390000      -1.33500000      -0.37220000
H       -1.20840000      -2.88130000       0.14860000
H        1.34480000      -2.85230000       0.07700000
