19
Properties=species:S:1:pos:R:3 gdb_56325=T pbc="F F F"
C       -0.17090000       1.46920000       0.07710000
C        0.07200000      -0.02040000       0.06240000
O        1.14730000      -0.56080000       0.10990000
O       -1.09790000      -0.69430000      -0.01390000
C       -0.98980000      -2.12720000      -0.04390000
C       -2.40000000      -2.68970000      -0.12820000
C       -2.39700000      -4.22660000      -0.17700000
C       -3.80060000      -4.78910000      -0.13290000
O       -4.26500000      -5.55150000      -0.93910000
H        0.78210000       1.99080000       0.15490000
H       -0.68870000       1.77290000      -0.83720000
H       -0.81500000       1.73760000       0.91920000
H       -0.38120000      -2.42590000      -0.90390000
H       -0.47050000      -2.47030000       0.85760000
H       -2.97610000      -2.34210000       0.73790000
H       -2.89520000      -2.28830000      -1.01930000
H       -1.89700000      -4.60580000      -1.07290000
H       -1.86140000      -4.61610000       0.70170000
H       -4.40600000      -4.43280000       0.73440000
