14
Properties=species:S:1:pos:R:3 gdb_48868=T pbc="F F F"
O       -0.88600000       1.00290000      -0.45010000
C        0.14740000       0.86120000       0.15640000
C        1.30570000       1.78060000       0.03480000
C        1.81900000       2.66520000       1.22700000
C        2.38790000       3.57460000       0.13130000
C        1.49550000       3.03000000      -0.89590000
N        2.99330000       2.72610000      -0.96400000
C        2.66770000       1.36550000      -0.56530000
O        3.22920000       0.34720000      -0.80000000
H        0.30390000       0.01040000       0.85490000
H        0.99500000       3.15540000       1.75030000
H        2.50280000       2.19720000       1.94130000
H        2.81170000       4.56470000       0.23180000
H        0.95380000       3.41560000      -1.74520000
