15
Properties=species:S:1:pos:R:3 gdb_124173=T pbc="F F F"
C        0.00460000       1.46430000      -0.00590000
C        0.00640000       0.01080000      -0.00080000
C        0.02030000      -1.19410000       0.00410000
C        0.00010000      -2.61230000       0.01030000
N        1.12890000      -3.30170000      -0.00480000
O        0.72180000      -4.64840000       0.00720000
C       -0.61650000      -4.71080000       0.03060000
N       -1.15810000      -5.97060000       0.10790000
C       -1.15040000      -3.45420000       0.03190000
H        1.02600000       1.85830000      -0.03680000
H       -0.53210000       1.85720000      -0.87660000
H       -0.48080000       1.86310000       0.89180000
H       -0.54930000      -6.70230000      -0.23090000
H       -2.09930000      -6.04940000      -0.24600000
H       -2.18500000      -3.16080000       0.05250000
