14
Properties=species:S:1:pos:R:3 gdb_127324=T pbc="F F F"
C       -0.02090000       1.56770000      -0.12990000
N        0.00970000       0.12810000       0.00850000
C        0.06150000      -0.79970000      -1.03110000
C        0.07710000      -2.06620000      -0.55940000
C        0.03230000      -1.94220000       0.88310000
C       -0.01220000      -0.50570000       1.25210000
O       -0.05690000       0.03260000       2.34100000
N        0.02280000      -3.67410000       2.59160000
N        0.02730000      -2.88330000       1.77940000
H        0.87730000       1.93720000      -0.63640000
H       -0.90390000       1.89420000      -0.69000000
H       -0.06120000       1.98590000       0.87720000
H        0.08370000      -0.45730000      -2.05430000
H        0.11510000      -2.98100000      -1.12590000
