18
Properties=species:S:1:pos:R:3 gdb_94183=T pbc="F F F"
N        0.22160000       1.12320000      -0.03950000
C        0.05260000      -0.21140000      -0.15190000
O        0.96770000      -0.99100000      -0.39590000
C       -1.38250000      -0.70390000       0.01550000
O       -2.11710000       0.31110000       0.66970000
C       -1.95360000      -1.28370000      -1.32080000
C       -1.54980000      -2.70600000      -0.86000000
C       -1.41650000      -2.16800000       0.59380000
O       -0.39110000      -2.61720000       1.41850000
H        1.15690000       1.49380000      -0.07320000
H       -0.54500000       1.69460000       0.27410000
H       -3.04350000       0.05280000       0.68800000
H       -3.03910000      -1.14050000      -1.35260000
H       -1.52480000      -0.90640000      -2.25040000
H       -2.26170000      -3.51550000      -1.03130000
H       -0.57130000      -2.98860000      -1.25060000
H       -2.35430000      -2.29320000       1.14880000
H        0.43080000      -2.40560000       0.94840000
