17
Properties=species:S:1:pos:R:3 gdb_10408=T pbc="F F F"
C        0.07020000       1.51860000      -0.14890000
C       -0.04950000       0.00770000       0.06150000
C       -1.49930000      -0.50790000       0.08710000
C       -2.18680000      -0.56970000      -1.31180000
O       -2.02840000      -1.99660000      -1.36970000
C       -1.61720000      -2.05980000       0.00570000
C       -2.27810000       0.12140000       1.14540000
N       -2.89380000       0.61950000       1.98800000
H        1.12100000       1.81940000      -0.17590000
H       -0.38760000       1.83080000      -1.09370000
H       -0.41870000       2.07040000       0.65940000
H        0.46860000      -0.53070000      -0.74070000
H        0.43750000      -0.27960000       1.00070000
H       -3.24010000      -0.26630000      -1.31360000
H       -1.65370000      -0.05790000      -2.12010000
H       -0.67700000      -2.60650000       0.13760000
H       -2.38980000      -2.49030000       0.65320000
