16
Properties=species:S:1:pos:R:3 gdb_125686=T pbc="F F F"
C        1.11890000       0.92390000       0.58500000
C        0.27960000      -0.25720000       0.21810000
N        0.26660000      -0.75610000      -1.01980000
N       -0.58350000      -1.77240000      -0.94020000
N       -1.14560000      -1.98260000       0.23890000
C       -0.60660000      -1.03160000       1.00720000
C       -0.99450000      -0.92340000       2.42730000
C       -0.04480000      -0.59140000       3.50330000
O       -0.96760000       0.38330000       3.02060000
H        2.07390000       0.61520000       1.02660000
H        1.34390000       1.51560000      -0.30490000
H        0.59920000       1.54740000       1.31510000
H       -0.80920000      -2.33760000      -1.74230000
H       -1.86590000      -1.52160000       2.68790000
H       -0.23300000      -0.95690000       4.51180000
H        1.00030000      -0.40900000       3.25990000
