17
Properties=species:S:1:pos:R:3 gdb_30277=T pbc="F F F"
C       -0.16910000       1.58680000      -0.03890000
C        0.03570000       0.07230000       0.05540000
C        0.89490000      -0.51040000      -1.13670000
N        1.77180000      -1.60530000      -0.58510000
C        1.77230000      -1.30960000       0.76890000
C        0.85390000      -0.43160000       1.20950000
N        0.88430000      -0.40790000       2.59630000
C        1.82310000      -1.24700000       2.89520000
O        2.42530000      -1.86700000       1.80720000
H        0.79220000       2.11110000      -0.04090000
H       -0.71090000       1.85740000      -0.95180000
H       -0.74770000       1.94870000       0.81590000
H       -0.95210000      -0.41000000       0.05110000
H        0.27260000      -0.90930000      -1.94040000
H        1.51860000       0.29250000      -1.54990000
H        2.68350000      -1.64270000      -1.02750000
H        2.21840000      -1.51370000       3.86130000
