18
Properties=species:S:1:pos:R:3 gdb_75044=T pbc="F F F"
C        0.11140000       1.34210000       0.39980000
C        0.06610000      -0.11560000       0.01840000
C       -1.12560000      -0.74920000      -0.09110000
C       -1.41420000      -2.12950000      -0.43520000
C       -0.57380000      -3.15060000      -0.22320000
C        0.76950000      -2.89790000       0.38480000
O        1.57860000      -2.03370000      -0.43030000
C        1.38380000      -0.68660000      -0.36890000
N        2.32300000       0.10610000      -0.70700000
H        0.74540000       1.49680000       1.27920000
H        0.56030000       1.93250000      -0.40360000
H       -0.89000000       1.72100000       0.61770000
H       -2.00580000      -0.13440000       0.08860000
H       -2.40350000      -2.32420000      -0.84170000
H       -0.85200000      -4.16680000      -0.48210000
H        0.66120000      -2.44680000       1.38170000
H        1.35190000      -3.81580000       0.48320000
H        3.15420000      -0.43610000      -0.95010000
