14
Properties=species:S:1:pos:R:3 gdb_1805=T pbc="F F F"
N       -0.04960000       1.29910000       0.18350000
C        0.04250000      -0.04510000      -0.02610000
O        1.09200000      -0.63430000      -0.21520000
C       -1.28770000      -0.75730000      -0.02250000
O       -2.42690000       0.05060000       0.14150000
C       -1.39370000      -2.02370000      -0.84100000
C       -1.32520000      -2.10330000       0.65860000
H        0.80690000       1.80520000       0.33840000
H       -0.91620000       1.67430000       0.53230000
H       -2.68100000       0.38060000      -0.72780000
H       -2.35230000      -2.21080000      -1.31230000
H       -0.51390000      -2.30590000      -1.40620000
H       -0.40200000      -2.44840000       1.10760000
H       -2.23850000      -2.32790000       1.19670000
