23
Properties=species:S:1:pos:R:3 gdb_103756=T pbc="F F F"
C        0.32920000       1.48830000       0.23010000
C       -0.17070000       0.08360000      -0.12680000
C        0.56040000      -0.51810000      -1.31190000
O        0.37450000       0.17910000      -2.52010000
C        1.91060000      -1.19310000      -1.10740000
C        0.67420000      -2.00730000      -1.46680000
O        0.07610000      -2.74670000      -0.42940000
C        0.56680000      -2.65400000      -2.83470000
C        1.31070000      -3.99190000      -2.92030000
H        1.39450000       1.47890000       0.48660000
H        0.18790000       2.18650000      -0.60270000
H       -0.21770000       1.89330000       1.08650000
H       -0.06760000      -0.58680000       0.72950000
H       -1.23950000       0.12330000      -0.36940000
H        0.89460000       0.98820000      -2.47420000
H        2.66430000      -1.05300000      -1.87560000
H        2.28750000      -1.27240000      -0.09280000
H        0.64820000      -3.49700000      -0.23730000
H       -0.49600000      -2.80840000      -3.05670000
H        0.94680000      -1.95770000      -3.58560000
H        2.37930000      -3.86770000      -2.71170000
H        0.90880000      -4.71930000      -2.20600000
H        1.21320000      -4.43150000      -3.91730000
