18
Properties=species:S:1:pos:R:3 gdb_107518=T pbc="F F F"
C       -0.04800000       1.52820000       0.28430000
C        0.00710000       0.04870000      -0.12450000
C       -1.34850000      -0.58220000      -0.18170000
O       -2.03950000      -0.84860000       1.03860000
C       -1.87120000      -1.92940000       0.11090000
C       -2.99910000      -1.80790000      -0.91780000
C       -2.44760000      -0.37170000      -1.26890000
C       -3.33720000       0.76630000      -1.10500000
N       -4.04180000       1.67420000      -0.97800000
H        0.95820000       1.95440000       0.32100000
H       -0.63880000       2.11780000      -0.42330000
H       -0.50420000       1.63720000       1.27200000
H        0.48840000      -0.05620000      -1.10480000
H        0.61320000      -0.51730000       0.59150000
H       -1.36760000      -2.81870000       0.47090000
H       -2.91490000      -2.49280000      -1.76330000
H       -4.00780000      -1.84440000      -0.50390000
H       -2.01580000      -0.35500000      -2.27320000
