18
Properties=species:S:1:pos:R:3 gdb_110468=T pbc="F F F"
O        0.09290000       1.36810000       0.11910000
C        0.07510000      -0.04200000       0.01390000
C       -1.35320000      -0.57360000      -0.05190000
C       -1.51040000      -2.08160000      -0.01980000
C       -1.54990000      -2.53870000       1.42270000
C       -2.83470000      -2.41610000       0.62910000
C       -3.18120000      -1.11730000       1.41660000
C       -1.91780000      -1.24040000       2.19290000
N       -2.07450000      -0.17930000       1.17480000
H       -0.56380000       1.58810000       0.79180000
H        0.61840000      -0.30160000      -0.90110000
H        0.59940000      -0.52000000       0.85820000
H       -1.86730000      -0.12410000      -0.90920000
H       -1.10470000      -2.73230000      -0.78470000
H       -1.05770000      -3.41530000       1.81700000
H       -3.51970000      -3.18080000       0.29360000
H       -4.16250000      -0.74380000       1.67850000
H       -1.66410000      -0.97690000       3.21090000
