17
Properties=species:S:1:pos:R:3 gdb_39740=T pbc="F F F"
C       -0.23500000       1.38830000      -0.28390000
O        1.05710000       0.86410000       0.11050000
C       -0.00030000      -0.03670000      -0.09430000
C       -0.35630000      -1.03940000       1.03790000
C       -1.22180000      -2.31020000       0.67700000
C       -2.09640000      -2.39890000      -0.58700000
C       -1.29140000      -1.48210000      -1.49750000
C       -0.05550000      -1.27430000      -0.98990000
C        0.18740000      -2.19030000       0.22820000
H       -0.75380000       1.96470000       0.48090000
H       -0.27200000       1.80690000      -1.28870000
H       -0.14790000      -0.83160000       2.08400000
H       -1.47600000      -2.90880000       1.55020000
H       -2.20390000      -3.44730000      -0.89810000
H       -3.10880000      -1.99140000      -0.47770000
H       -1.79940000      -0.73750000      -2.10420000
H        1.04250000      -2.82250000       0.42270000
