16
Properties=species:S:1:pos:R:3 gdb_16929=T pbc="F F F"
O       -0.00020000       0.01350000       0.04940000
C       -0.02440000       1.21440000       0.01850000
C       -1.27090000       2.12550000      -0.00430000
C       -0.61470000       3.51740000       0.00740000
C        0.61750000       3.31190000      -0.89090000
C        1.16980000       2.17650000       0.00210000
C        1.12910000       2.89500000       1.37340000
O       -0.04030000       3.72940000       1.30670000
H       -1.85510000       1.94040000      -0.91280000
H       -1.91340000       1.94290000       0.86040000
H       -1.27100000       4.35710000      -0.21900000
H        0.37380000       2.99070000      -1.90680000
H        1.26560000       4.19060000      -0.92660000
H        2.12150000       1.71190000      -0.24790000
H        1.04690000       2.20270000       2.21890000
H        2.02090000       3.51790000       1.51840000
