15
Properties=species:S:1:pos:R:3 gdb_131351=T pbc="F F F"
O       -0.69640000       1.16870000      -0.51500000
C       -0.18420000      -0.00070000      -0.07900000
N        0.78180000      -0.62570000      -0.73790000
N        1.00830000      -1.73550000       0.01040000
C        0.21750000      -1.81280000       1.10170000
C        0.29390000      -2.95900000       2.07740000
C        1.29730000      -3.95680000       1.71910000
C        2.13020000      -4.76260000       1.40070000
C       -0.58770000      -0.68830000       1.08530000
H       -0.22830000       1.39370000      -1.32890000
H        1.70930000      -2.40120000      -0.26870000
H        0.51030000      -2.57040000       3.08110000
H       -0.68900000      -3.44230000       2.15090000
H        2.85990000      -5.48970000       1.14150000
H       -1.34590000      -0.40360000       1.79510000
