16
Properties=species:S:1:pos:R:3 gdb_97429=T pbc="F F F"
C       -0.45870000       0.68850000      -0.01880000
N        0.80900000      -0.00900000       0.03660000
C        0.99970000      -0.79530000       0.99410000
O        2.18250000      -1.45210000       1.11270000
C        2.26290000      -2.39470000       2.17640000
C        1.54760000      -3.63790000       1.91100000
C        0.95550000      -4.66850000       1.69770000
C        0.24110000      -5.88780000       1.40990000
O        0.19360000      -6.83960000       2.15340000
H       -0.28180000       1.76970000      -0.00430000
H       -0.95900000       0.46070000      -0.96640000
H       -1.14560000       0.43820000       0.80590000
H        0.27690000      -1.01130000       1.79630000
H        3.32960000      -2.60200000       2.30450000
H        1.90130000      -1.95560000       3.11730000
H       -0.27510000      -5.88630000       0.42910000
