17
Properties=species:S:1:pos:R:3 gdb_98577=T pbc="F F F"
O        0.00640000       1.40200000       0.03410000
C       -0.02400000       0.00310000      -0.00900000
C       -1.46830000      -0.48440000       0.02130000
O       -2.40640000       0.27760000       0.07470000
C       -1.64690000      -1.96030000      -0.02040000
C       -2.83280000      -2.57370000      -0.00340000
C       -2.64790000      -4.05570000      -0.05650000
O       -1.23860000      -4.25960000      -0.10670000
C       -0.55760000      -3.00880000      -0.08770000
H        0.92610000       1.68220000       0.01600000
H        0.44570000      -0.40860000      -0.92110000
H        0.50130000      -0.46420000       0.84410000
H       -3.79130000      -2.07370000       0.04230000
H       -3.07270000      -4.56000000       0.82640000
H       -3.12740000      -4.50340000      -0.94190000
H        0.06640000      -2.91450000      -0.99060000
H        0.12120000      -2.97110000       0.77900000
