21
Properties=species:S:1:pos:R:3 gdb_70879=T pbc="F F F"
C       -0.12180000       1.46750000       0.04080000
C        0.01290000      -0.02320000      -0.04240000
C        0.94740000      -0.84680000      -0.92850000
C        0.11830000      -2.07550000      -0.46490000
C        0.09240000      -3.39140000      -1.17770000
O        0.45740000      -2.17330000       0.95620000
C       -0.29620000      -0.97650000       1.13280000
C       -1.08540000      -1.09130000      -0.12680000
C       -2.53820000      -1.06140000      -0.47330000
H        0.79680000       1.92730000       0.42370000
H       -0.33160000       1.91080000      -0.93970000
H       -0.93770000       1.75660000       0.71300000
H        0.78900000      -0.62590000      -1.98870000
H        2.01860000      -0.87300000      -0.69860000
H        1.08520000      -3.85390000      -1.14770000
H       -0.61750000      -4.07730000      -0.70620000
H       -0.19190000      -3.25720000      -2.22580000
H       -0.55680000      -0.65710000       2.13470000
H       -3.03240000      -0.20970000       0.00710000
H       -2.69750000      -0.96380000      -1.55380000
H       -3.05140000      -1.97080000      -0.14030000
