16
Properties=species:S:1:pos:R:3 gdb_11654=T pbc="F F F"
C       -0.08860000       1.64310000       0.07230000
C        0.04060000       0.13220000       0.08890000
C        1.12270000      -0.66370000      -0.69690000
C        2.22500000      -0.18480000       0.27630000
C        0.98210000      -0.63970000       1.08610000
O        0.87140000      -1.81890000       0.20220000
C        0.80290000      -0.83310000       2.55510000
O        1.05520000       0.01950000       3.36850000
H        0.87130000       2.16150000       0.12280000
H       -0.59630000       1.96600000      -0.84310000
H       -0.69330000       1.98060000       0.92000000
H       -0.93090000      -0.36500000       0.02520000
H        1.18730000      -0.87540000      -1.76420000
H        3.08250000      -0.85230000       0.36090000
H        2.50350000       0.86830000       0.29380000
H        0.39360000      -1.82820000       2.83760000
