18
Properties=species:S:1:pos:R:3 gdb_7999=T pbc="F F F"
C       -0.12840000       1.51700000       0.05630000
C       -0.05020000       0.02560000      -0.01890000
C       -0.07860000      -0.75420000      -1.10240000
C       -0.02600000      -2.22650000      -0.77450000
O        0.85100000      -2.98110000      -1.60240000
C        0.34310000      -2.23190000       0.73110000
C        0.02230000      -0.81080000       1.24930000
O        0.92950000      -0.31070000       2.22480000
H        0.69170000       1.91850000       0.66080000
H       -0.09780000       1.97730000      -0.93450000
H       -1.05530000       1.83290000       0.55240000
H       -0.16960000      -0.40850000      -2.12760000
H       -1.00450000      -2.69630000      -0.93580000
H        1.70860000      -2.54150000      -1.58590000
H       -0.15060000      -3.02350000       1.29870000
H        1.42410000      -2.40010000       0.81780000
H       -0.94770000      -0.79160000       1.76340000
H        1.81060000      -0.32580000       1.83430000
