15
Properties=species:S:1:pos:R:3 gdb_126203=T pbc="F F F"
C       -0.18410000       1.57580000       0.03340000
C        0.10070000       0.06270000       0.01640000
C        0.86810000      -0.36870000      -1.18390000
C        2.12210000      -0.90410000      -1.35110000
C        2.23460000      -1.06800000      -2.76560000
N        1.16020000      -0.67180000      -3.38860000
O        0.29330000      -0.22770000      -2.38150000
C        3.06670000      -1.21410000      -0.34650000
N        3.83870000      -1.46670000       0.47900000
H        0.74670000       2.14950000       0.04940000
H       -0.75590000       1.87530000      -0.84830000
H       -0.76190000       1.83600000       0.92380000
H        0.66970000      -0.23150000       0.90260000
H       -0.84560000      -0.49070000       0.04060000
H        3.06790000      -1.46290000      -3.32820000
