24
Properties=species:S:1:pos:R:3 gdb_7396=T pbc="F F F"
C       -0.08950000       1.39740000       0.01470000
O       -0.06160000      -0.00750000       0.00010000
C        0.64460000      -0.53310000      -1.10640000
C        0.60770000      -2.06440000      -1.04250000
C       -0.85360000      -2.54160000      -1.03970000
C        1.44530000      -2.70580000      -2.17880000
C        2.92110000      -2.27250000      -2.15000000
C        1.36900000      -4.24100000      -2.14880000
H        0.92400000       1.82760000       0.06530000
H       -0.58790000       1.80770000      -0.87860000
H       -0.64730000       1.70660000       0.90230000
H        0.18700000      -0.18420000      -2.05080000
H        1.67840000      -0.15750000      -1.08900000
H        1.06540000      -2.35110000      -0.08430000
H       -1.31440000      -2.39100000      -2.02410000
H       -0.93760000      -3.60150000      -0.78880000
H       -1.43020000      -1.97300000      -0.30780000
H        1.01340000      -2.37110000      -3.13450000
H        3.49050000      -2.80250000      -2.92060000
H        3.05310000      -1.20250000      -2.32920000
H        3.37890000      -2.50880000      -1.18170000
H        0.35160000      -4.61030000      -2.29670000
H        1.99360000      -4.67100000      -2.93850000
H        1.73260000      -4.63240000      -1.19070000
