20
Properties=species:S:1:pos:R:3 gdb_73820=T pbc="F F F"
C       -0.01720000       1.50080000       0.08530000
C       -0.02450000       0.01360000      -0.01120000
C       -0.03950000      -0.81930000      -1.06220000
C       -0.05500000      -0.57320000      -2.53210000
C        0.01040000      -2.18540000      -0.40150000
C       -0.88330000      -2.17010000       0.87600000
C        0.18960000      -3.03340000       1.54460000
N        1.05550000      -2.04980000       0.75260000
C        0.03310000      -0.94270000       1.16680000
H        0.88430000       1.86190000       0.59650000
H       -0.05330000       1.97130000      -0.90120000
H       -0.87340000       1.87110000       0.66400000
H       -0.07770000       0.49520000      -2.76410000
H        0.83100000      -1.00300000      -3.01670000
H       -0.92770000      -1.03780000      -3.00910000
H        0.10420000      -3.08680000      -1.01100000
H       -1.97810000      -2.22880000       0.93840000
H        0.31800000      -2.95240000       2.62810000
H        0.29760000      -4.07140000       1.21600000
H        0.15040000      -0.55690000       2.18180000
