17
Properties=species:S:1:pos:R:3 gdb_85568=T pbc="F F F"
C        0.03440000       1.56670000       0.14310000
C        0.03790000       0.03200000       0.00430000
C        0.76010000      -0.45480000      -1.26420000
C        2.24400000      -0.18620000      -1.16380000
O        2.95190000       0.14170000      -2.08300000
C        2.83130000      -0.33670000       0.23940000
O        1.96630000      -0.89870000       1.22730000
C        0.63280000      -0.62200000       1.24730000
O       -0.01140000      -0.92980000       2.21040000
H        1.04570000       1.98540000       0.17830000
H       -0.47990000       2.01750000      -0.71080000
H       -0.48660000       1.86390000       1.05650000
H       -1.00120000      -0.30510000      -0.01720000
H        0.62880000      -1.54100000      -1.36700000
H        0.36850000       0.00990000      -2.17250000
H        3.70390000      -0.99270000       0.18630000
H        3.18510000       0.64890000       0.56950000
