20
Properties=species:S:1:pos:R:3 gdb_85929=T pbc="F F F"
C        0.02030000       1.56230000      -0.08960000
C        0.06650000       0.04970000       0.03810000
O        0.74020000      -0.53040000      -1.07600000
C        1.44580000      -1.67160000      -0.62520000
C        0.60920000      -2.94240000      -0.77080000
C        2.78090000      -1.74240000      -1.34550000
O        1.69030000      -1.43930000       0.78400000
C        0.87090000      -0.44980000       1.22410000
N        0.78600000      -0.01340000       2.40440000
H        1.03070000       1.96530000      -0.19600000
H       -0.57050000       1.85450000      -0.96150000
H       -0.43250000       1.98450000       0.81050000
H       -0.95810000      -0.34770000       0.11510000
H        0.40210000      -3.13080000      -1.82740000
H        1.14310000      -3.80100000      -0.35550000
H       -0.34200000      -2.83870000      -0.24200000
H        3.34080000      -0.82100000      -1.17310000
H        3.36580000      -2.59190000      -0.98450000
H        2.61450000      -1.85940000      -2.41930000
H        1.41820000      -0.51680000       3.02810000
