16
Properties=species:S:1:pos:R:3 gdb_128514=T pbc="F F F"
C        0.00080000       1.39420000       0.06780000
O        0.05040000      -0.03550000      -0.00260000
C        0.66090000      -0.66760000       0.99740000
C        0.79200000      -2.00950000       1.21030000
N        0.31000000      -3.13730000       0.49990000
C        1.51790000      -2.05480000       2.43910000
N        1.94010000      -3.21740000       3.04400000
N        1.79840000      -0.86180000       2.92350000
O        1.22390000       0.04400000       1.97390000
H        1.00830000       1.81960000       0.06830000
H       -0.54040000       1.71220000      -0.82320000
H       -0.52760000       1.72270000       0.96750000
H       -0.60510000      -2.95860000       0.10110000
H        0.92490000      -3.40040000      -0.26480000
H        1.35280000      -4.00790000       2.81510000
H        2.13330000      -3.12970000       4.03130000
