23
Properties=species:S:1:pos:R:3 gdb_96586=T pbc="F F F"
C        0.03560000       1.57390000       0.09680000
C       -0.00470000       0.05070000       0.00260000
C        0.66580000      -0.45520000      -1.29070000
C        1.08260000      -1.93120000      -1.27000000
C       -0.05040000      -2.94630000      -1.09370000
O       -0.86400000      -2.75980000       0.05590000
C       -0.19150000      -2.79720000       1.30380000
C       -0.08560000      -1.40140000       1.92120000
O        0.66310000      -0.48160000       1.15590000
H        1.07220000       1.91920000       0.16760000
H       -0.42070000       2.03210000      -0.78720000
H       -0.50190000       1.92320000       0.98300000
H       -1.04580000      -0.28780000       0.01300000
H       -0.01640000      -0.26180000      -2.12910000
H        1.56400000       0.14700000      -1.47810000
H        1.58860000      -2.17600000      -2.21270000
H        1.82660000      -2.06860000      -0.47900000
H       -0.74660000      -2.88780000      -1.93820000
H        0.37680000      -3.96290000      -1.09020000
H       -0.77480000      -3.43490000       1.98340000
H        0.80570000      -3.24600000       1.20490000
H       -1.10220000      -1.01700000       2.10000000
H        0.41600000      -1.48160000       2.89360000
