23
Properties=species:S:1:pos:R:3 gdb_84691=T pbc="F F F"
C       -0.11500000       1.58820000       0.00740000
C        0.02030000       0.05490000      -0.01380000
C        0.66660000      -0.42660000      -1.29390000
C        1.80210000      -1.12570000      -1.31330000
C        2.52550000      -1.49230000      -0.03370000
C        1.81970000      -2.68970000       0.65470000
C        0.59360000      -2.03910000       1.36510000
C        0.77990000      -0.50150000       1.21750000
C        2.30030000      -0.36980000       0.99520000
H        0.86480000       2.07630000       0.01840000
H       -0.65040000       1.94690000      -0.87820000
H       -0.66960000       1.91960000       0.89190000
H       -1.00200000      -0.35240000       0.01940000
H        0.16140000      -0.17260000      -2.22390000
H        2.21700000      -1.47630000      -2.25510000
H        3.58160000      -1.69500000      -0.23180000
H        1.53000000      -3.46710000      -0.05680000
H        2.49350000      -3.15080000       1.38540000
H       -0.35400000      -2.36750000       0.92810000
H        0.56780000      -2.32270000       2.42150000
H        0.43820000       0.02760000       2.11250000
H        2.84800000      -0.57620000       1.92190000
H        2.60860000       0.61300000       0.62890000
