16
Properties=species:S:1:pos:R:3 gdb_77335=T pbc="F F F"
N       -0.28340000       1.60130000      -0.48660000
C       -0.08700000       0.23510000       0.00380000
C       -1.43970000      -0.52040000       0.07640000
C       -1.46840000      -1.25460000      -1.28770000
O       -0.09970000      -1.48340000      -1.63410000
C        0.72900000      -0.64550000      -0.93740000
N        1.97850000      -0.57130000      -1.08080000
C       -1.48830000      -1.45850000       1.19540000
N       -1.53000000      -2.20240000       2.07870000
H        0.62270000       2.06240000      -0.50970000
H       -0.60410000       1.58720000      -1.45260000
H        0.40060000       0.29270000       0.97690000
H       -2.26360000       0.19020000       0.17440000
H       -1.98000000      -2.21720000      -1.25230000
H       -1.94080000      -0.62680000      -2.05270000
H        2.30890000      -1.21370000      -1.80280000
