19
Properties=species:S:1:pos:R:3 gdb_44419=T pbc="F F F"
O       -0.00680000      -0.03550000      -0.15530000
C       -0.05950000       1.15050000      -0.06560000
C       -1.27520000       2.17410000       0.17020000
C       -0.21240000       2.95380000       0.99590000
C        0.76360000       4.19590000       1.01890000
C        1.91540000       3.09450000       1.10090000
C        0.91180000       2.33340000       0.16470000
C        0.97920000       3.24530000      -1.10490000
C        0.84730000       4.64660000      -0.44070000
H       -1.62710000       2.63410000      -0.75330000
H       -2.12540000       1.76070000       0.71560000
H       -0.20020000       2.51350000       1.99820000
H        0.67140000       4.96000000       1.79190000
H        2.89710000       3.36900000       0.70420000
H        2.00890000       2.65250000       2.09360000
H        1.93790000       3.09570000      -1.60870000
H        0.19740000       3.04050000      -1.83830000
H       -0.04830000       5.18470000      -0.76240000
H        1.71170000       5.28940000      -0.62820000
