13
Properties=species:S:1:pos:R:3 gdb_4605=T pbc="F F F"
N        0.01880000       1.43370000       0.15080000
C       -0.04270000       0.03930000       0.04800000
C       -1.20710000      -0.67390000       0.03020000
N       -1.14590000      -2.04380000      -0.01190000
C        0.03340000      -2.78320000      -0.02690000
O        0.04350000      -4.00380000      -0.06280000
C        1.20370000      -1.90260000      -0.00010000
N        1.16620000      -0.60540000       0.03100000
H        0.92740000       1.77570000      -0.13250000
H       -0.72350000       1.92670000      -0.32530000
H       -2.19250000      -0.22680000       0.05190000
H       -1.99690000      -2.58870000      -0.03040000
H        2.17330000      -2.39460000      -0.01320000
