18
Properties=species:S:1:pos:R:3 gdb_113492=T pbc="F F F"
O        0.21320000       0.84660000       0.72690000
C       -0.20780000       0.23400000      -0.48090000
C       -1.51110000      -0.51520000      -0.33540000
C       -1.89070000      -1.61630000      -1.31540000
C       -1.52750000      -1.95560000       0.09170000
C       -0.32590000      -2.79830000       0.54090000
N       -0.81870000      -3.54370000       1.71300000
C       -2.04040000      -3.22770000       1.82910000
O       -2.60030000      -2.35000000       0.96300000
H        0.24380000       0.16780000       1.40910000
H       -0.32320000       1.05070000      -1.20140000
H        0.56660000      -0.43920000      -0.88470000
H       -2.33630000       0.08300000       0.04080000
H       -2.93280000      -1.69720000      -1.60240000
H       -1.18020000      -1.88120000      -2.09370000
H        0.00640000      -3.50200000      -0.23120000
H        0.54640000      -2.19540000       0.81930000
H       -2.72010000      -3.60460000       2.58490000
