18
Properties=species:S:1:pos:R:3 gdb_10337=T pbc="F F F"
C        0.02900000       1.46930000       0.15370000
C        0.04560000      -0.02250000      -0.08290000
O        1.07150000      -0.61120000      -0.36640000
C       -1.28380000      -0.77810000       0.02780000
C       -1.16280000      -2.19140000      -0.57100000
O       -0.67320000      -2.19210000      -1.89280000
C       -1.75640000      -0.87270000       1.48860000
O       -2.25350000       0.38860000       1.91190000
H        1.04820000       1.85750000       0.16140000
H       -0.53780000       1.95090000      -0.65280000
H       -0.49850000       1.70210000       1.08210000
H       -2.04740000      -0.21210000      -0.52070000
H       -0.53660000      -2.81120000       0.08950000
H       -2.15790000      -2.64820000      -0.60310000
H        0.24530000      -1.90200000      -1.82390000
H       -2.54470000      -1.63980000       1.54390000
H       -0.92570000      -1.21130000       2.12730000
H       -2.48710000       0.32380000       2.84280000
