18
Properties=species:S:1:pos:R:3 gdb_86634=T pbc="F F F"
C       -0.17390000       1.69270000      -0.00030000
C        0.18890000       0.22360000      -0.11760000
O        1.36860000       0.09140000      -0.96670000
C        2.16080000      -0.80380000      -0.34840000
C        3.41310000      -1.23290000      -1.03740000
O        3.76660000      -0.82820000      -2.11360000
N        1.83850000      -1.25380000       0.79960000
C        0.59350000      -0.55610000       1.17950000
C        0.83770000       0.27730000       2.44090000
H        0.62420000       2.26630000       0.47710000
H       -0.35140000       2.11340000      -0.99340000
H       -1.08890000       1.81200000       0.58780000
H       -0.61620000      -0.31250000      -0.63360000
H        3.98600000      -1.96900000      -0.44080000
H       -0.16650000      -1.31040000       1.40910000
H        1.61330000       1.03120000       2.27840000
H       -0.07710000       0.78310000       2.76340000
H        1.17240000      -0.37880000       3.24800000
