18
Properties=species:S:1:pos:R:3 gdb_111228=T pbc="F F F"
C       -0.01850000       1.29280000      -0.19960000
O       -0.08700000      -0.01940000       0.32250000
C       -1.35560000      -0.60470000       0.20260000
C       -1.61650000      -1.25510000      -1.19590000
C       -0.80380000      -2.47180000      -0.69170000
C       -1.33590000      -2.07070000       0.71760000
N       -2.72590000      -2.53110000       0.84500000
C       -3.43670000      -2.25700000      -0.16780000
O       -3.01570000      -1.60060000      -1.28010000
H        0.99890000       1.65210000      -0.03080000
H       -0.23120000       1.32440000      -1.27790000
H       -0.72460000       1.96410000       0.31140000
H       -2.14680000       0.04840000       0.59550000
H       -1.36290000      -0.73930000      -2.12110000
H       -1.07150000      -3.45900000      -1.07150000
H        0.26480000      -2.28470000      -0.79000000
H       -0.75970000      -2.30210000       1.61230000
H       -4.48340000      -2.53870000      -0.24390000
