17
Properties=species:S:1:pos:R:3 gdb_129634=T pbc="F F F"
N       -0.44630000       1.41240000      -0.36100000
C       -0.22370000       0.05140000      -0.12400000
C       -1.10250000      -0.99810000      -0.10160000
C       -2.58750000      -1.14250000      -0.19850000
C       -3.23200000      -0.48930000      -1.42100000
O       -3.23830000       0.92460000      -1.22240000
O       -0.41010000      -2.15600000       0.06950000
N        0.93800000      -1.88080000       0.18970000
C        1.03990000      -0.58060000       0.06450000
H       -0.00690000       2.01300000       0.32470000
H       -1.43510000       1.61930000      -0.45190000
H       -2.81360000      -2.21310000      -0.21060000
H       -3.07470000      -0.72480000       0.69280000
H       -2.67730000      -0.75900000      -2.32960000
H       -4.26250000      -0.85870000      -1.52530000
H       -3.45610000       1.34950000      -2.05740000
H        2.01560000      -0.11650000       0.11220000
