14
Properties=species:S:1:pos:R:3 gdb_13162=T pbc="F F F"
O       -1.04680000       1.65420000      -0.06640000
C        0.00020000       1.14970000      -0.38010000
C        1.34160000       1.89330000      -0.32150000
O        2.35190000       1.30160000      -0.61070000
C        1.27490000       3.33550000       0.13740000
C        1.16080000       3.53120000       1.67570000
C        2.51990000       4.24500000       1.51920000
O        2.53670000       4.00370000       0.09370000
H        0.09790000       0.10030000      -0.73030000
H        0.50000000       3.85660000      -0.43980000
H        0.32330000       4.15040000       1.99450000
H        1.17820000       2.61420000       2.26640000
H        2.51990000       5.31670000       1.74800000
H        3.36940000       3.76850000       2.02040000
