20
Properties=species:S:1:pos:R:3 gdb_81796=T pbc="F F F"
C       -0.12910000       1.53820000       0.00130000
C        0.02430000       0.02200000      -0.01440000
C        1.15550000      -0.51130000      -0.91670000
C        1.26320000      -2.01320000      -0.77860000
C        1.86160000      -1.13300000       0.28390000
O        3.21040000      -1.12590000       0.58680000
C        0.78090000      -0.59460000       1.19340000
C        0.96390000      -0.00370000       2.53120000
N        0.27090000      -1.30460000       2.36780000
H        0.83160000       2.02840000       0.18880000
H       -0.51110000       1.89860000      -0.96020000
H       -0.83120000       1.86200000       0.77710000
H       -0.94530000      -0.45410000      -0.21180000
H        1.58120000       0.02320000      -1.75680000
H        0.38220000      -2.62010000      -0.58080000
H        1.99820000      -2.47370000      -1.43190000
H        3.43570000      -1.98520000       0.96020000
H        1.93610000      -0.06340000       3.01260000
H        0.37820000       0.87240000       2.79780000
H       -0.73460000      -1.16690000       2.44790000
