15
Properties=species:S:1:pos:R:3 gdb_44824=T pbc="F F F"
O       -0.47780000       0.07400000      -0.41640000
C       -0.26170000       1.21110000      -0.12780000
C       -1.17110000       2.42360000       0.25140000
C        0.08640000       3.28460000       0.07670000
O        1.02430000       2.80700000       1.03600000
C        0.96580000       2.12390000      -0.23430000
C        2.22690000       1.97480000      -1.03920000
C        3.13940000       0.97960000      -0.48360000
C        3.88750000       0.16170000      -0.02270000
H       -1.95040000       2.56740000      -0.50290000
H       -1.60660000       2.43400000       1.25200000
H        0.18010000       4.30650000      -0.27000000
H        1.95640000       1.69750000      -2.06600000
H        2.72280000       2.95160000      -1.09050000
H        4.54550000      -0.56490000       0.38560000
