18
Properties=species:S:1:pos:R:3 gdb_88912=T pbc="F F F"
C       -0.37270000       1.25490000       0.51150000
C        0.08140000      -0.14640000       0.17680000
C        1.44760000      -0.39550000      -0.41870000
C        1.14830000      -0.85100000       0.98440000
N        1.80620000      -0.16840000       2.05930000
C        1.30350000      -0.20660000       3.33110000
N        0.15950000      -0.70670000       3.61320000
C        2.18460000       0.38970000       4.32630000
N        2.85900000       0.84820000       5.14630000
H        0.45710000       1.86240000       0.88330000
H       -0.78260000       1.75240000      -0.37360000
H       -1.14740000       1.23820000       1.28420000
H       -0.70880000      -0.80640000      -0.16960000
H        1.57280000      -1.15130000      -1.18560000
H        2.09830000       0.46710000      -0.52890000
H        1.00020000      -1.91410000       1.15850000
H        2.78850000       0.03390000       1.96230000
H       -0.04720000      -0.60850000       4.60400000
