18
Properties=species:S:1:pos:R:3 gdb_65935=T pbc="F F F"
C       -0.42870000       1.51260000       0.09310000
C        0.00440000       0.04650000       0.02560000
C        1.30670000      -0.29150000      -0.79420000
C        1.81040000      -1.19410000       0.36780000
C        0.74390000      -0.55810000       1.25540000
C        0.87260000       0.03170000       2.58910000
O        0.11670000      -1.16750000       2.35310000
C       -1.11310000      -0.80400000      -0.38230000
N       -1.99590000      -1.47000000      -0.71970000
H        0.41440000       2.13650000       0.40240000
H       -0.77600000       1.85890000      -0.88470000
H       -1.24610000       1.64880000       0.80720000
H        1.15070000      -0.76970000      -1.76060000
H        1.91480000       0.60580000      -0.92810000
H        1.59960000      -2.25240000       0.19280000
H        2.85100000      -1.08330000       0.67780000
H        1.79940000      -0.10290000       3.14520000
H        0.28370000       0.90440000       2.86540000
