20
Properties=species:S:1:pos:R:3 gdb_39137=T pbc="F F F"
C        0.06560000       1.63330000      -0.10730000
C        1.60340000       1.46280000       0.04140000
C        1.35560000       0.06170000       0.64410000
C       -0.08580000       0.09510000       0.05000000
O        2.24790000      -0.93970000       0.17490000
C        2.43670000      -1.95880000       1.15300000
C        2.07000000      -1.32550000       2.47730000
N        2.76470000      -0.03860000       2.69200000
C        1.38810000      -0.05380000       2.15430000
H       -0.37410000       2.18060000       0.73130000
H       -0.30000000       2.07630000      -1.03540000
H        2.09860000       1.36660000      -0.92800000
H        2.15770000       2.17420000       0.65700000
H       -0.90520000      -0.28730000       0.66600000
H       -0.09700000      -0.41560000      -0.91610000
H        1.78610000      -2.82650000       0.96020000
H        3.48090000      -2.28460000       1.09790000
H        1.79370000      -1.94440000       3.32410000
H        2.72920000       0.19330000       3.68220000
H        0.56920000       0.34090000       2.74630000
