16
Properties=species:S:1:pos:R:3 gdb_123442=T pbc="F F F"
C        0.18680000       1.21410000       0.67120000
C       -0.02660000      -0.09860000      -0.05410000
C       -1.39160000      -0.61750000      -0.29830000
N       -0.57770000      -0.11290000      -1.42220000
C        1.46020000       1.89470000       0.26190000
N        2.20670000       2.55840000       1.10520000
O        3.26080000       3.04040000       0.38130000
N        3.17650000       2.66700000      -0.92920000
C        2.08190000       1.96560000      -1.02100000
H       -0.66410000       1.87900000       0.46830000
H        0.21020000       1.06040000       1.75490000
H        0.77440000      -0.82220000       0.08440000
H       -1.57320000      -1.68790000      -0.30770000
H       -2.23290000      -0.01900000       0.04210000
H       -0.90130000       0.81980000      -1.67200000
H        1.77350000       1.52670000      -1.95710000
