18
Properties=species:S:1:pos:R:3 gdb_110705=T pbc="F F F"
C        0.08400000       1.61930000       0.00780000
C        0.10050000       0.09400000       0.07450000
N        0.64370000      -0.47630000      -1.16790000
C       -0.30560000      -0.53920000      -2.34100000
C        0.54980000      -1.25270000      -3.35790000
C        1.17230000      -2.20030000      -2.63470000
C        0.64290000      -1.98090000      -1.23970000
C       -0.90610000      -1.81500000      -1.59170000
O       -1.95620000      -2.23480000      -1.24050000
H        1.08300000       2.00570000      -0.21190000
H       -0.59700000       1.97920000      -0.77020000
H       -0.25350000       2.03780000       0.96060000
H        0.76830000      -0.23150000       0.88040000
H       -0.90640000      -0.28270000       0.32410000
H       -0.87900000       0.34560000      -2.60620000
H        0.56300000      -1.06740000      -4.42140000
H        1.83000000      -2.99650000      -2.94920000
H        1.02490000      -2.54330000      -0.39040000
