16
Properties=species:S:1:pos:R:3 gdb_127896=T pbc="F F F"
C       -0.13020000       1.41310000      -0.00880000
N       -0.12550000      -0.03250000      -0.08200000
C        0.56970000      -0.65950000      -0.94430000
N        1.39520000       0.04650000      -1.90010000
N        2.09380000      -0.43860000      -2.75990000
O        2.13240000      -1.94330000      -2.87700000
C        1.38350000      -2.63690000      -2.01200000
C        0.60340000      -2.10220000      -1.05220000
C       -0.21300000      -2.93220000      -0.11240000
H        0.50520000       1.91430000      -0.74630000
H       -1.16170000       1.76550000      -0.12710000
H        0.18540000       1.71290000       0.99760000
H        1.47460000      -3.70910000      -2.17120000
H       -0.08600000      -3.99900000      -0.31630000
H        0.07050000      -2.73230000       0.92630000
H       -1.27500000      -2.67790000      -0.19470000
