17
Properties=species:S:1:pos:R:3 gdb_43375=T pbc="F F F"
O       -0.16090000       0.01510000       0.26210000
C       -0.13840000       1.21320000       0.10980000
C       -1.30280000       2.11090000      -0.07660000
C       -0.90630000       3.38770000      -0.10170000
C        0.58410000       3.54680000       0.06430000
C        1.12750000       2.10100000       0.08570000
C        2.09950000       1.80980000       1.25110000
C        2.81300000       0.54430000       1.13730000
C        3.44360000      -0.47320000       1.03680000
H       -2.31560000       1.73640000      -0.14980000
H       -1.56180000       4.24520000      -0.21240000
H        1.01800000       4.15260000      -0.73960000
H        0.80640000       4.08110000       0.99810000
H        1.64690000       1.88390000      -0.85430000
H        2.83340000       2.62470000       1.30000000
H        1.54600000       1.84160000       2.19890000
H        3.97220000      -1.38980000       0.95170000
