21
Properties=species:S:1:pos:R:3 gdb_64330=T pbc="F F F"
C       -0.01030000       1.54210000      -0.01460000
C       -0.02080000       0.00700000      -0.02600000
C       -1.47590000      -0.49980000       0.05920000
C        0.68510000      -0.51330000      -1.29310000
C        0.94970000      -2.01610000      -1.22030000
N        1.63640000      -2.32390000       0.02050000
C        1.42950000      -1.66620000       1.21430000
O        1.85840000      -2.09130000       2.27440000
N        0.76300000      -0.46210000       1.11970000
H        1.01380000       1.92230000      -0.06040000
H       -0.57160000       1.94070000      -0.86540000
H       -0.47660000       1.92670000       0.89960000
H       -2.06870000      -0.14170000      -0.78950000
H       -1.52040000      -1.59220000       0.07500000
H       -1.94950000      -0.13850000       0.97780000
H        0.07750000      -0.28610000      -2.17410000
H        1.64070000       0.01080000      -1.40020000
H        0.00540000      -2.57450000      -1.31540000
H        1.58140000      -2.32110000      -2.06170000
H        2.03670000      -3.23960000       0.14600000
H        0.55420000      -0.07040000       2.02580000
