21
Properties=species:S:1:pos:R:3 gdb_96080=T pbc="F F F"
C       -0.04180000       1.53860000       0.00420000
C        0.04850000       0.00890000       0.01390000
C        0.68590000      -0.52950000      -1.27510000
O        0.84880000      -1.93270000      -1.22070000
C        1.85320000      -2.31810000      -0.29840000
C        1.67910000      -1.71900000       1.10190000
O        1.59940000      -2.65420000       2.14690000
C        2.28260000      -0.36880000       1.40980000
C        0.78140000      -0.52530000       1.23570000
H        0.95510000       1.99230000      -0.02260000
H       -0.59980000       1.89800000      -0.86740000
H       -0.54890000       1.90750000       0.90120000
H       -0.96880000      -0.40260000       0.04800000
H        0.03610000      -0.32420000      -2.13110000
H        1.65400000      -0.03360000      -1.46990000
H        1.78210000      -3.40510000      -0.21010000
H        2.84630000      -2.06530000      -0.70860000
H        2.49030000      -2.97350000       2.32830000
H        2.64290000      -0.20460000       2.41940000
H        2.86040000       0.12650000       0.63480000
H        0.21690000      -0.49370000       2.16310000
