19
Properties=species:S:1:pos:R:3 gdb_38964=T pbc="F F F"
C       -0.09940000       1.34000000      -0.03290000
C        1.30200000       1.94730000       0.11180000
C        2.14330000       0.74220000       0.57770000
C        2.17820000       0.52080000       2.07950000
O        0.87420000       0.37750000       2.66610000
C        1.64450000      -0.80630000       2.41470000
C        1.24360000      -1.53210000       1.14870000
C        1.36330000      -0.48560000       0.00620000
O        0.10640000      -0.00580000      -0.45790000
H       -0.63170000       1.36430000       0.92470000
H       -0.71000000       1.83650000      -0.79340000
H        1.66540000       2.30710000      -0.85570000
H        1.32730000       2.78230000       0.81690000
H        3.16860000       0.78760000       0.19830000
H        2.90600000       1.04200000       2.69750000
H        1.94510000      -1.35520000       3.30420000
H        1.92470000      -2.37390000       0.97810000
H        0.22550000      -1.92880000       1.19390000
H        1.86830000      -0.93020000      -0.85830000
