23
Properties=species:S:1:pos:R:3 gdb_57533=T pbc="F F F"
C       -0.06540000       1.60820000       0.21630000
C        0.01110000       0.08260000       0.04620000
C        0.76820000      -0.56380000       1.21580000
C       -1.39760000      -0.50620000      -0.06840000
O        0.62070000      -0.25080000      -1.21780000
C        1.98540000      -0.00140000      -1.38820000
C        2.99320000      -1.15630000      -1.15170000
O        3.52100000      -1.00270000      -2.48490000
C        2.44840000      -0.10960000      -2.85180000
H        0.92480000       2.06230000       0.31830000
H       -0.56410000       2.05890000      -0.64650000
H       -0.63380000       1.86300000       1.11610000
H        0.24790000      -0.36970000       2.15870000
H        0.83470000      -1.64730000       1.07990000
H        1.78230000      -0.16340000       1.31130000
H       -1.92050000      -0.07080000      -0.92440000
H       -1.34550000      -1.58840000      -0.21570000
H       -1.97890000      -0.30290000       0.83560000
H        2.29930000       0.93390000      -0.91200000
H        3.76460000      -1.01940000      -0.38490000
H        2.49700000      -2.12570000      -1.01010000
H        1.69670000      -0.59720000      -3.48620000
H        2.81380000       0.79920000      -3.34200000
