18
Properties=species:S:1:pos:R:3 gdb_76108=T pbc="F F F"
C        0.00260000       1.54900000       0.03020000
C        0.04350000       0.04830000      -0.00490000
C       -0.88080000      -0.83400000       0.78900000
C        0.59920000      -0.96070000       1.01190000
C        1.23450000      -1.79810000      -0.10620000
C        0.82980000      -3.18780000      -0.25300000
N        0.50110000      -4.28550000      -0.41030000
C        0.63130000      -0.76430000      -1.15720000
O       -0.32700000      -1.21900000      -2.06980000
H        0.97210000       1.98430000      -0.23770000
H       -0.74400000       1.93730000      -0.67180000
H       -0.26240000       1.91140000       1.02840000
H       -1.41790000      -0.32580000       1.58330000
H       -1.43830000      -1.63110000       0.30740000
H        1.06980000      -0.77660000       1.96940000
H        2.32610000      -1.74450000      -0.09940000
H        1.45200000      -0.23330000      -1.65770000
H        0.08900000      -1.82940000      -2.68850000
