18
Properties=species:S:1:pos:R:3 gdb_58397=T pbc="F F F"
C       -0.10800000       1.56100000       0.14650000
C       -0.03980000       0.03900000       0.02470000
O       -1.33900000      -0.52600000      -0.05300000
C        0.67010000      -0.43970000      -1.26510000
C        2.10900000       0.10940000      -1.41470000
C        2.80710000      -0.36120000      -2.67990000
O        3.34420000       0.38510000      -3.45600000
C        0.67820000      -1.90830000      -1.29950000
N        0.73780000      -3.06190000      -1.32550000
H        0.87860000       2.01120000       0.28510000
H       -0.57930000       1.99960000      -0.73880000
H       -0.71370000       1.82950000       1.01830000
H        0.51170000      -0.37400000       0.88430000
H       -1.78920000      -0.37730000       0.78430000
H        0.06030000      -0.09260000      -2.10890000
H        2.10380000       1.20030000      -1.42730000
H        2.70900000      -0.22690000      -0.55760000
H        2.80060000      -1.46000000      -2.84210000
