15
Properties=species:S:1:pos:R:3 gdb_32560=T pbc="F F F"
O       -0.02230000       1.44050000       0.00730000
C       -0.00860000       0.02350000       0.00210000
C       -1.41690000      -0.49100000       0.01230000
C       -2.47930000       0.33270000       0.02360000
O       -3.76650000      -0.09630000       0.03290000
C       -3.99130000      -1.42700000       0.03090000
C       -3.01300000      -2.34760000       0.02000000
C       -1.60640000      -1.94870000       0.00940000
O       -0.66580000      -2.73520000      -0.00050000
H        0.88780000       1.74810000       0.00160000
H        0.50490000      -0.38220000      -0.88330000
H        0.51990000      -0.38860000       0.87570000
H       -2.41390000       1.41130000       0.02630000
H       -5.05230000      -1.64390000       0.03910000
H       -3.25730000      -3.40260000       0.01900000
