20
Properties=species:S:1:pos:R:3 gdb_92249=T pbc="F F F"
C        0.27750000       1.46800000      -0.18640000
C        0.02430000      -0.00440000       0.04840000
O        0.83390000      -0.87540000      -0.80350000
C        1.25640000      -1.68670000       0.31250000
C        2.62900000      -1.27330000       0.88900000
N        1.97950000      -0.22890000       1.75280000
C        1.62140000      -0.70370000       3.13220000
C        0.13100000      -0.87600000       2.72480000
C        0.60970000      -0.67870000       1.29060000
H        1.30990000       1.71920000       0.06750000
H        0.09040000       1.72070000      -1.23450000
H       -0.39380000       2.07240000       0.43370000
H       -1.04020000      -0.25010000      -0.08760000
H        1.00810000      -2.74410000       0.18200000
H        3.13680000      -2.05650000       1.46530000
H        3.32350000      -0.85590000       0.15470000
H        2.11520000      -1.64320000       3.40870000
H        1.83110000       0.03980000       3.90590000
H       -0.35600000      -1.82390000       2.96350000
H       -0.50600000      -0.05760000       3.07170000
