17
Properties=species:S:1:pos:R:3 gdb_126907=T pbc="F F F"
C        0.12670000       1.48430000       0.17170000
C       -0.19980000       0.02290000      -0.11710000
N        0.66360000      -0.50090000      -1.16760000
C        0.86340000      -1.81880000      -1.37730000
C        1.45190000      -2.41400000      -2.49350000
N        1.90610000      -1.74290000      -3.64040000
N        1.48060000      -3.75140000      -2.22980000
N        1.00100000      -4.08020000      -1.14320000
O        0.53570000      -2.70840000      -0.48290000
H        1.16490000       1.59660000       0.49670000
H       -0.02220000       2.10750000      -0.71750000
H       -0.52810000       1.86950000       0.95800000
H       -0.04120000      -0.59050000       0.77350000
H       -1.26080000      -0.08080000      -0.39010000
H        0.82440000       0.06930000      -1.98620000
H        1.46240000      -2.07560000      -4.48980000
H        2.91080000      -1.81090000      -3.76680000
