18
Properties=species:S:1:pos:R:3 gdb_99915=T pbc="F F F"
N       -0.06610000       1.48290000      -0.06720000
C       -0.03330000       0.02120000      -0.05270000
C        0.89690000      -0.41060000       1.11430000
O        0.46820000       0.11060000       2.35440000
C       -1.37140000      -0.56300000       0.20800000
N       -2.41540000      -0.99840000       0.45110000
C        0.51700000      -0.54380000      -1.36590000
C        0.30160000       0.14600000      -2.65800000
N        1.63230000       0.14070000      -2.02310000
H       -0.90480000       1.82830000      -0.52090000
H       -0.08570000       1.80670000       0.89650000
H        0.97920000      -1.50460000       1.12790000
H        1.88640000       0.01190000       0.92200000
H       -0.33760000      -0.35180000       2.61430000
H        0.59220000      -1.62910000      -1.36380000
H        0.21840000      -0.43930000      -3.56860000
H       -0.25610000       1.07780000      -2.66230000
H        1.75570000       1.04210000      -1.56080000
