17
Properties=species:S:1:pos:R:3 gdb_2348=T pbc="F F F"
C       -0.28030000       1.57440000      -0.16790000
C        0.09320000       0.12820000       0.10600000
O        1.23270000      -0.20360000       0.34780000
C       -1.03180000      -0.88290000       0.01670000
C       -1.25610000      -1.51580000      -1.40440000
C       -1.44140000      -2.89340000      -0.71490000
C       -0.77920000      -2.31060000       0.56140000
H        0.61730000       2.19000000      -0.23670000
H       -0.86470000       1.65610000      -1.09130000
H       -0.91700000       1.94900000       0.64260000
H       -1.96550000      -0.44720000       0.38640000
H       -2.08280000      -1.12330000      -2.00060000
H       -0.33970000      -1.47800000      -2.00000000
H       -2.49840000      -3.12720000      -0.55920000
H       -0.96210000      -3.75500000      -1.18500000
H        0.29510000      -2.50370000       0.60210000
H       -1.22450000      -2.56220000       1.52620000
