18
Properties=species:S:1:pos:R:3 gdb_82829=T pbc="F F F"
O       -0.10370000       1.47000000      -0.01120000
C       -0.04300000       0.06330000       0.04010000
C        0.31130000      -0.66320000       1.37160000
C       -0.48330000      -0.09660000       2.55870000
N       -1.73530000      -0.81710000       2.14220000
C       -2.40940000      -0.07910000       1.01720000
C       -1.41360000      -0.64800000      -0.01270000
O       -1.86880000      -1.11100000      -1.24820000
C       -0.91520000      -1.59920000       1.11890000
H        0.79290000       1.82020000      -0.00010000
H        0.57310000      -0.35060000      -0.77150000
H        1.34380000      -0.98590000       1.51410000
H       -0.14110000      -0.48690000       3.52220000
H       -0.57680000       0.99220000       2.62520000
H       -3.41270000      -0.48720000       0.85860000
H       -2.46480000       1.00670000       1.13810000
H       -2.07270000      -0.34550000      -1.79810000
H       -0.93880000      -2.68700000       1.11110000
