15
Properties=species:S:1:pos:R:3 gdb_9655=T pbc="F F F"
C       -0.40070000       1.02280000      -0.18280000
O        0.56570000       0.01650000       0.09590000
C        1.01560000      -0.63180000      -1.02980000
C        1.50360000      -2.02970000      -0.84880000
C        0.18220000      -1.79820000      -1.57940000
O       -1.01180000      -2.04950000      -0.91080000
C        0.14730000      -1.99300000      -3.01070000
N        0.12030000      -2.15090000      -4.15700000
H        0.00240000       1.78200000      -0.86810000
H       -1.30820000       0.58910000      -0.61760000
H       -0.64250000       1.49570000       0.77070000
H        1.50020000      -0.00320000      -1.77820000
H        2.36200000      -2.37290000      -1.41360000
H        1.39220000      -2.43660000       0.15020000
H       -1.14390000      -3.00340000      -0.86510000
