16
Properties=species:S:1:pos:R:3 gdb_14686=T pbc="F F F"
C        0.00690000       1.48430000       0.00970000
C        0.01320000       0.03270000       0.00190000
C        0.01930000      -1.17770000      -0.00470000
C        0.02650000      -2.53790000      -0.01200000
C        0.03380000      -3.74880000      -0.01860000
C        0.02200000      -5.20190000      -0.02620000
C       -1.39760000      -5.78420000      -0.01550000
O       -1.25950000      -7.19410000      -0.02450000
H        1.02700000       1.88500000       0.00200000
H       -0.51350000       1.88440000      -0.86800000
H       -0.49640000       1.87490000       0.90150000
H        0.54530000      -5.58390000      -0.91200000
H        0.56250000      -5.59340000       0.84490000
H       -1.93030000      -5.43030000       0.87950000
H       -1.94760000      -5.42070000      -0.89600000
H       -2.13830000      -7.58420000      -0.01760000
