12
Properties=species:S:1:pos:R:3 gdb_48059=T pbc="F F F"
O       -0.79070000       1.36250000      -0.07800000
C        0.29030000       0.94510000      -0.39400000
C        1.57040000       1.77990000      -0.24630000
O        2.64650000       1.27020000      -0.37210000
C        1.33880000       3.28020000       0.11290000
C        2.53350000       3.91830000       0.64490000
C        3.51970000       4.42850000       1.09710000
C        0.83300000       3.95230000      -1.09420000
N        0.43890000       4.45120000      -2.05830000
H        0.47630000      -0.07750000      -0.77680000
H        0.52190000       3.29390000       0.84750000
H        4.39290000       4.88590000       1.49390000
