15
Properties=species:S:1:pos:R:3 gdb_29672=T pbc="F F F"
C        0.10070000       1.43310000       0.05900000
N        0.00720000      -0.02950000       0.01840000
C       -0.08640000      -0.62910000      -1.21920000
O       -0.09780000      -0.05580000      -2.27240000
O       -0.17310000      -2.01020000      -1.22840000
C       -0.16530000      -2.71910000      -0.07510000
C       -0.07590000      -2.15990000       1.13110000
C        0.02000000      -0.71280000       1.25060000
N        0.11170000      -0.01730000       2.31990000
H        1.02670000       1.72670000       0.55740000
H        0.07800000       1.79750000      -0.96450000
H       -0.73390000       1.83710000       0.63560000
H       -0.24040000      -3.78230000      -0.26720000
H       -0.07340000      -2.76710000       2.02570000
H        0.11030000      -0.62740000       3.13540000
