21
Properties=species:S:1:pos:R:3 gdb_111195=T pbc="F F F"
C        0.03870000       1.50410000       0.17450000
C        0.00660000      -0.02550000       0.28880000
C       -1.39010000      -0.58750000       0.05220000
C       -2.00520000      -0.70370000      -1.38380000
C       -1.08480000      -1.93310000      -1.63310000
C       -1.64390000      -2.11700000      -0.18860000
C       -3.03190000      -1.73940000      -0.77940000
C       -4.16970000      -1.27450000       0.08250000
O       -4.17460000      -1.22700000       1.28850000
H        1.03550000       1.89790000       0.39550000
H       -0.23320000       1.83320000      -0.83440000
H       -0.66580000       1.96760000       0.87380000
H        0.74570000      -0.45510000      -0.39470000
H        0.32290000      -0.31870000       1.29840000
H       -2.07060000      -0.15220000       0.78710000
H       -2.24340000       0.09990000      -2.08280000
H       -1.42810000      -2.65110000      -2.38310000
H       -0.01730000      -1.74460000      -1.73980000
H       -1.44170000      -2.93510000       0.50340000
H       -3.43100000      -2.42650000      -1.53700000
H       -5.07510000      -0.97540000      -0.49810000
