16
Properties=species:S:1:pos:R:3 gdb_1901=T pbc="F F F"
C       -0.07880000       1.55240000      -0.05480000
C        0.10990000       0.04980000      -0.00040000
N        1.35040000      -0.57780000      -0.69270000
C        2.14580000      -0.14530000       0.54880000
C        0.82410000      -0.68940000       1.14860000
O        0.37200000      -0.71510000       2.45720000
C        1.00280000      -1.83410000       0.11800000
H       -0.23360000       1.87030000      -1.09100000
H       -0.97270000       1.82400000       0.51600000
H        0.75840000       2.12230000       0.35280000
H       -0.80240000      -0.44450000      -0.35230000
H        3.05520000      -0.73410000       0.69810000
H        2.36150000       0.92140000       0.59970000
H        0.99120000      -1.22580000       2.99040000
H        0.10970000      -2.35370000      -0.23850000
H        1.84950000      -2.51530000       0.23830000
