14
Properties=species:S:1:pos:R:3 gdb_27015=T pbc="F F F"
C       -0.00190000       1.52880000       0.13260000
C        0.01120000       0.04880000       0.00950000
C       -0.00590000      -0.74180000      -1.08890000
O        0.01790000      -2.08370000      -0.70780000
C        0.05080000      -2.13060000       0.66960000
N        0.07990000      -3.14620000       1.41730000
N        0.04570000      -0.80690000       1.08880000
C       -0.04180000      -0.40860000      -2.45160000
N       -0.07140000      -0.10940000      -3.57230000
H        0.89270000       1.88750000       0.65380000
H       -0.03230000       1.98660000      -0.85740000
H       -0.87620000       1.86800000       0.69920000
H        0.07690000      -4.00560000       0.87500000
H        0.06690000      -0.55400000       2.06150000
