22
Properties=species:S:1:pos:R:3 gdb_15717=T pbc="F F F"
C        0.06720000       1.64670000       0.09310000
C        0.08410000       0.12190000      -0.05310000
C        0.68070000      -0.57800000       1.16040000
O       -0.15210000      -0.34050000       2.29300000
C        0.27670000      -1.21880000       3.32620000
C        0.94880000      -2.43370000       2.63110000
C        0.82090000      -2.11680000       1.11970000
C       -0.37890000      -2.82650000       0.48200000
H        1.08190000       2.04440000       0.20820000
H       -0.38010000       2.12290000      -0.78470000
H       -0.50870000       1.94020000       0.97460000
H       -0.93560000      -0.24470000      -0.21040000
H        0.66740000      -0.16490000      -0.93730000
H        1.68400000      -0.15040000       1.35160000
H        0.98710000      -0.70610000       3.99200000
H       -0.60230000      -1.48980000       3.91880000
H        1.99780000      -2.51520000       2.92860000
H        0.46330000      -3.37830000       2.88990000
H        1.73360000      -2.39950000       0.58470000
H       -1.31410000      -2.52490000       0.96500000
H       -0.46340000      -2.60460000      -0.58600000
H       -0.28110000      -3.91180000       0.58800000
