19
Properties=species:S:1:pos:R:3 gdb_89550=T pbc="F F F"
C       -0.77960000       1.26520000       0.32690000
C        0.05740000       0.01960000       0.12570000
C        0.70500000      -0.21920000      -1.25610000
C        2.03610000      -0.20680000      -0.47980000
C        2.96690000      -1.45570000      -0.46870000
C        4.03910000      -0.59240000      -1.15050000
O        5.06250000      -0.83380000      -1.72110000
C        3.23100000       0.69060000      -0.90340000
O        1.36760000       0.12490000       0.74540000
H       -0.26770000       2.14630000      -0.07260000
H       -1.74570000       1.16180000      -0.17940000
H       -0.96850000       1.43090000       1.39210000
H       -0.47200000      -0.86110000       0.51380000
H        0.45000000      -1.15340000      -1.75900000
H        0.58300000       0.61280000      -1.95380000
H        3.25340000      -1.72200000       0.55480000
H        2.64440000      -2.35750000      -0.99600000
H        3.10070000       1.37050000      -1.74950000
H        3.61950000       1.25470000      -0.04790000
