19
Properties=species:S:1:pos:R:3 gdb_110005=T pbc="F F F"
O        0.12070000       1.38150000      -0.12770000
C        0.06060000      -0.00830000       0.12090000
C       -1.38600000      -0.50930000       0.07090000
C       -1.97510000      -0.56680000      -1.36310000
O       -1.30850000       0.26860000      -2.29220000
C       -1.69760000      -2.08890000      -1.40350000
C       -1.59470000      -2.07010000       0.15290000
C       -0.51910000      -2.91650000       0.77600000
O       -0.67900000      -3.63320000       1.73110000
H       -0.21490000       1.50180000      -1.02500000
H        0.69590000      -0.56720000      -0.58350000
H        0.47200000      -0.16680000       1.12410000
H       -1.96920000       0.06760000       0.79210000
H       -3.05220000      -0.35770000      -1.35570000
H       -1.78560000       0.26370000      -3.12720000
H       -2.44640000      -2.74630000      -1.84980000
H       -0.72380000      -2.28670000      -1.86310000
H       -2.54190000      -2.31340000       0.63860000
H        0.47360000      -2.85120000       0.27270000
