19
Properties=species:S:1:pos:R:3 gdb_92312=T pbc="F F F"
C        0.01430000       1.55440000       0.14330000
N        0.04890000       0.11130000       0.17530000
C       -1.20220000      -0.66140000       0.29650000
C       -0.48580000      -1.63190000       1.27080000
N        0.06330000      -2.85890000       0.67040000
C        1.42260000      -2.58370000       0.17750000
C        1.91150000      -1.30480000       0.88000000
O        3.05300000      -0.94670000       1.00800000
C        0.65090000      -0.57640000       1.34220000
H        1.03520000       1.94880000       0.14030000
H       -0.47810000       1.89080000      -0.77510000
H       -0.52470000       1.99620000       1.00310000
H       -2.01330000      -0.10080000       0.78930000
H       -1.57470000      -1.09040000      -0.63970000
H       -1.03460000      -1.86500000       2.18270000
H        0.10510000      -3.58100000       1.37790000
H        2.10500000      -3.41590000       0.36510000
H        1.42150000      -2.39890000      -0.90480000
H        0.77710000       0.02240000       2.25080000
