18
Properties=species:S:1:pos:R:3 gdb_102397=T pbc="F F F"
O       -0.06380000       1.32340000      -0.28510000
C       -0.00260000      -0.07870000      -0.03320000
C       -1.45350000      -0.59480000       0.03140000
C       -2.18320000      -0.06390000       1.29600000
O       -1.63100000      -0.53210000       2.50750000
C       -2.25250000      -0.11920000      -1.22930000
O       -1.47810000      -0.07170000      -2.40360000
C       -1.39880000      -2.06030000       0.07130000
N       -1.35650000      -3.21490000       0.08490000
H        0.83240000       1.67280000      -0.27960000
H        0.52800000      -0.60290000      -0.83570000
H        0.50640000      -0.29960000       0.91450000
H       -2.18200000       1.03150000       1.24110000
H       -3.22290000      -0.40580000       1.27280000
H       -0.89280000       0.03420000       2.74870000
H       -3.07480000      -0.81450000      -1.41550000
H       -2.68760000       0.86270000      -0.99900000
H       -0.89030000       0.68710000      -2.30450000
