23
Properties=species:S:1:pos:R:3 gdb_95343=T pbc="F F F"
C       -0.07160000       1.56010000       0.02290000
C       -0.00650000       0.03060000      -0.01890000
C        0.77710000      -0.47790000      -1.24030000
C        0.68240000      -2.00470000      -1.37390000
C        1.01560000      -2.75010000      -0.08300000
C        2.46140000      -2.85640000       0.44420000
O        2.03790000      -2.50300000       1.77730000
C        0.74280000      -2.06460000       1.28370000
C        0.63170000      -0.53060000       1.26410000
H        0.93420000       1.99220000       0.08690000
H       -0.55020000       1.96280000      -0.87610000
H       -0.63820000       1.91120000       0.89190000
H       -1.03620000      -0.35210000      -0.09660000
H        0.39810000      -0.00960000      -2.15610000
H        1.82590000      -0.16320000      -1.14330000
H       -0.34400000      -2.25990000      -1.66870000
H        1.32660000      -2.36270000      -2.18690000
H        0.56120000      -3.74420000      -0.10100000
H        2.93660000      -3.84290000       0.40860000
H        3.15700000      -2.11430000       0.02430000
H       -0.06570000      -2.50820000       1.87560000
H        1.64830000      -0.12710000       1.35180000
H        0.08420000      -0.18310000       2.14750000
