19
Properties=species:S:1:pos:R:3 gdb_1816=T pbc="F F F"
C        0.11440000       1.48020000       0.01920000
C        0.00040000      -0.04720000       0.04660000
C        0.57540000      -0.59730000       1.36030000
O       -1.40950000      -0.31580000       0.00090000
C        0.63920000      -0.63210000      -1.21040000
C        2.08980000      -1.01760000      -1.32720000
C        1.02520000      -2.08780000      -1.34440000
H        1.16200000       1.79130000       0.05960000
H       -0.33300000       1.87680000      -0.89660000
H       -0.41500000       1.91490000       0.87190000
H        0.02330000      -0.16220000       2.19730000
H        0.46830000      -1.68510000       1.42400000
H        1.63420000      -0.35080000       1.48410000
H       -1.51080000      -1.26270000      -0.14510000
H        0.20410000      -0.19640000      -2.10630000
H        2.60770000      -0.78500000      -2.25120000
H        2.71540000      -0.95280000      -0.44410000
H        0.95570000      -2.73280000      -0.47500000
H        0.80750000      -2.58860000      -2.28140000
