17
Properties=species:S:1:pos:R:3 gdb_84776=T pbc="F F F"
N        0.16960000       1.48590000      -0.03210000
C        0.03840000       0.04690000       0.04400000
C        0.60740000      -0.55110000       1.31130000
C       -0.12790000      -1.55170000       1.78490000
C       -1.34520000      -1.81630000       0.93280000
C       -1.43900000      -0.53580000       0.05550000
O       -2.24470000       0.45720000       0.67070000
C       -1.93590000      -0.81000000      -1.30360000
N       -2.33280000      -1.01420000      -2.37050000
H       -0.11320000       1.81910000      -0.94880000
H       -0.45690000       1.91820000       0.64010000
H        0.56090000      -0.37660000      -0.82400000
H        1.53890000      -0.18310000       1.72330000
H        0.10730000      -2.15240000       2.65550000
H       -1.21710000      -2.71290000       0.31310000
H       -2.26720000      -1.95850000       1.50890000
H       -3.14670000       0.12440000       0.73240000
