18
Properties=species:S:1:pos:R:3 gdb_47813=T pbc="F F F"
O       -0.01330000      -0.05360000      -0.32930000
C       -0.01940000       1.12610000      -0.08240000
C       -1.32210000       1.92500000       0.07450000
O       -1.60690000       2.19140000       1.43690000
C       -0.85670000       3.21700000       2.06800000
C        0.56080000       2.77720000       2.46130000
C        1.52940000       2.74950000       1.29290000
N        2.25210000       1.48670000       1.04200000
C        1.25130000       1.93930000       0.07800000
H       -1.26180000       2.86290000      -0.50360000
H       -2.14680000       1.31590000      -0.30280000
H       -0.82490000       4.11540000       1.42930000
H       -1.42640000       3.46680000       2.96840000
H        0.94270000       3.44650000       3.24120000
H        0.49720000       1.77510000       2.89760000
H        2.07380000       3.67710000       1.12280000
H        3.19100000       1.66150000       0.69410000
H        1.58960000       2.35170000      -0.87420000
