17
Properties=species:S:1:pos:R:3 gdb_128636=T pbc="F F F"
C       -0.11420000       1.37320000      -0.02240000
O       -0.01080000      -0.05400000      -0.04450000
C        0.60990000      -0.56010000      -1.11030000
N        1.14230000       0.10030000      -2.12050000
C        1.62550000      -0.92190000      -2.89380000
N        2.22230000      -0.67270000      -4.11510000
N        1.43230000      -2.14210000      -2.42440000
N        0.75300000      -1.88820000      -1.24650000
C        0.32090000      -2.95860000      -0.38400000
H        0.87840000       1.83160000      -0.02000000
H       -0.66760000       1.73290000      -0.89400000
H       -0.64860000       1.61560000       0.89650000
H        2.68470000       0.22400000      -4.15100000
H        2.81170000      -1.42890000      -4.43220000
H        1.17950000      -3.54820000      -0.04870000
H       -0.18030000      -2.52270000       0.48100000
H       -0.37330000      -3.61850000      -0.91300000
