16
Properties=species:S:1:pos:R:3 gdb_52067=T pbc="F F F"
O        0.30010000       0.01000000      -0.11080000
C        0.53350000       1.08830000       0.33770000
O        0.65160000       2.18750000      -0.44540000
C        0.93900000       3.43490000       0.18460000
C        2.38580000       3.83960000      -0.02890000
C        2.79600000       4.36730000      -1.39520000
C        2.70170000       5.31550000      -0.24160000
C        3.34190000       3.04790000       0.70290000
N        4.08630000       2.40050000       1.30730000
H        0.66740000       1.31190000       1.41310000
H        0.28080000       4.17650000      -0.27620000
H        0.70640000       3.38410000       1.25530000
H        3.77860000       4.09210000      -1.75740000
H        2.02030000       4.38320000      -2.15210000
H        1.86290000       6.00140000      -0.19530000
H        3.61800000       5.69140000       0.19640000
