17
Properties=species:S:1:pos:R:3 gdb_87024=T pbc="F F F"
C        0.31110000       1.30860000      -0.29150000
C        0.39590000      -0.14630000       0.07620000
O        1.68030000      -0.66280000       0.43540000
C        0.66090000      -0.62600000       1.46300000
C        0.87130000       0.31900000       2.52870000
C        1.06790000       1.12000000       3.40160000
C        0.12190000      -1.98480000       1.86520000
N        0.45030000      -2.97580000       0.96490000
N       -0.60500000      -2.06470000       2.90940000
H        0.85870000       1.92650000       0.42190000
H        0.72750000       1.46680000      -1.29170000
H       -0.73560000       1.62930000      -0.30640000
H       -0.18240000      -0.82910000      -0.54720000
H        1.23430000       1.81450000       4.18760000
H        1.28370000      -2.80740000       0.41940000
H        0.30520000      -3.92750000       1.26280000
H       -0.93160000      -3.02080000       3.06320000
