19
Properties=species:S:1:pos:R:3 gdb_81530=T pbc="F F F"
C       -0.40820000       1.51650000       0.46220000
C        0.00090000       0.08100000       0.17190000
C        1.39250000      -0.27330000      -0.46750000
C        2.03700000       0.01910000       0.91580000
C        0.75490000      -0.79920000       1.23370000
C        1.12100000      -1.74980000       0.02570000
O        0.07560000      -2.43920000      -0.57920000
C        2.29150000      -2.68950000       0.17410000
O        2.21570000      -3.83720000      -0.20950000
H        0.36550000       2.12120000       0.94120000
H       -0.69030000       2.02030000      -0.46900000
H       -1.28770000       1.52960000       1.11530000
H       -0.82780000      -0.44420000      -0.30110000
H        1.76520000       0.01160000      -1.45320000
H        3.00820000      -0.41840000       1.14450000
H        2.02670000       1.05930000       1.23360000
H        0.39170000      -1.12130000       2.21150000
H        0.41550000      -3.33650000      -0.72960000
H        3.21880000      -2.31660000       0.63760000
