12
Properties=species:S:1:pos:R:3 gdb_20626=T pbc="F F F"
C       -0.00400000       1.51240000       0.10310000
C        0.02910000       0.03000000      -0.02920000
C       -0.00180000      -0.79790000      -1.11830000
O        0.05310000      -2.06610000      -0.68460000
N        0.11980000      -2.00820000       0.71630000
N        0.10490000      -0.79750000       1.07310000
C       -0.07940000      -0.51920000      -2.55880000
O       -0.09870000      -1.36370000      -3.41880000
H        0.89460000       1.87140000       0.61430000
H       -0.06490000       2.00090000      -0.87110000
H       -0.86610000       1.82430000       0.70070000
H       -0.11980000       0.56400000      -2.79390000
