20
Properties=species:S:1:pos:R:3 gdb_85524=T pbc="F F F"
C       -0.30170000       1.53340000      -0.06650000
C        0.02660000       0.03530000       0.02910000
N        0.75980000      -0.43630000      -1.14970000
C        2.11660000      -0.43910000      -1.31520000
O        2.63970000      -0.70630000      -2.38200000
C        2.92520000      -0.07010000      -0.07300000
C        2.27330000      -0.48070000       1.24060000
C        1.61980000       0.54840000       2.12440000
C        0.76730000      -0.38740000       1.30270000
H        0.60510000       2.14270000      -0.12290000
H       -0.89000000       1.73450000      -0.96740000
H       -0.88150000       1.85840000       0.80300000
H       -0.92710000      -0.50380000       0.02330000
H        0.24270000      -0.58910000      -2.00360000
H        3.90930000      -0.52550000      -0.19550000
H        3.08450000       1.01560000      -0.10740000
H        2.72720000      -1.33590000       1.72990000
H        1.63480000       0.39750000       3.19820000
H        1.69510000       1.58850000       1.82500000
H        0.26260000      -1.17060000       1.85790000
