17
Properties=species:S:1:pos:R:3 gdb_22008=T pbc="F F F"
C       -0.02760000       1.50030000       0.00000000
C       -0.01460000      -0.00760000       0.03370000
N       -0.00810000      -0.71750000       1.10560000
O       -0.00970000       0.05940000       2.27610000
C       -0.00440000      -0.73980000      -1.23150000
C        0.00300000      -0.17840000      -2.49670000
N        0.01460000      -1.19620000      -3.41070000
C        0.01560000      -2.40770000      -2.75860000
C        0.00440000      -2.16030000      -1.41180000
H        0.89790000       1.87750000      -0.44930000
H       -0.85810000       1.85730000      -0.61770000
H       -0.12520000       1.91520000       1.00090000
H       -0.01910000      -0.61870000       2.95930000
H        0.00350000       0.85150000      -2.81350000
H        0.02090000      -1.07460000      -4.40770000
H        0.02320000      -3.33380000      -3.31040000
H        0.00190000      -2.89150000      -0.62060000
