16
Properties=species:S:1:pos:R:3 gdb_73938=T pbc="F F F"
C        0.05840000       1.53060000       0.04070000
C       -0.01330000       0.04520000       0.03070000
C       -1.08540000      -0.77020000      -0.03140000
C       -0.63960000      -2.22200000      -0.01300000
N        0.79400000      -2.09660000       0.06610000
C        1.22710000      -0.79070000       0.09530000
O        2.37620000      -0.40480000       0.16000000
C       -2.44890000      -0.41560000      -0.10470000
C       -3.62090000      -0.14080000      -0.16790000
H        0.65960000       1.88840000      -0.80250000
H       -0.93490000       1.98080000      -0.01100000
H        0.56530000       1.88110000       0.94660000
H       -1.06510000      -2.75480000       0.84850000
H       -0.96820000      -2.74760000      -0.92020000
H        1.43430000      -2.87120000       0.09820000
H       -4.65090000       0.11200000      -0.22330000
