23
Properties=species:S:1:pos:R:3 gdb_121303=T pbc="F F F"
O       -0.12790000       1.50940000       0.10620000
C        0.02600000       0.10380000      -0.03700000
C       -1.36550000      -0.51790000      -0.00100000
C       -1.38290000      -2.05230000      -0.02160000
C       -2.81210000      -2.59340000       0.14700000
C       -2.83160000      -4.12320000       0.26750000
C       -1.94400000      -4.77850000      -0.75790000
C       -1.03320000      -4.11280000      -1.46610000
C       -0.75560000      -2.64030000      -1.30050000
H        0.74180000       1.91440000       0.04300000
H        0.53410000      -0.13970000      -0.98260000
H        0.63930000      -0.31380000       0.77950000
H       -1.86350000      -0.15930000       0.90820000
H       -1.94570000      -0.12650000      -0.84690000
H       -0.79100000      -2.41340000       0.83350000
H       -3.28650000      -2.13890000       1.02420000
H       -3.40930000      -2.29110000      -0.72410000
H       -2.51530000      -4.42820000       1.27670000
H       -3.85860000      -4.49590000       0.16220000
H       -2.07260000      -5.84730000      -0.91330000
H       -0.43730000      -4.63980000      -2.20820000
H       -1.12940000      -2.09250000      -2.18040000
H        0.32980000      -2.47830000      -1.30040000
