16
Properties=species:S:1:pos:R:3 gdb_20591=T pbc="F F F"
C       -0.48740000       1.37090000      -0.11010000
C       -0.05280000      -0.05840000      -0.10580000
C        0.29400000      -0.91710000      -1.13920000
C        0.32960000      -0.61310000      -2.60130000
O       -0.92870000      -0.06410000      -3.00080000
C        0.61560000      -2.13330000      -0.49640000
N        0.48900000      -2.05720000       0.82390000
N        0.08180000      -0.78750000       1.03070000
H        0.35010000       2.05370000       0.07940000
H       -0.91390000       1.61310000      -1.08460000
H       -1.24810000       1.56190000       0.65440000
H        1.13990000       0.09770000      -2.83200000
H        0.55030000      -1.53840000      -3.15480000
H       -0.84890000       0.21120000      -3.91980000
H        0.93270000      -3.06080000      -0.95270000
H       -0.11150000      -0.48690000       1.97160000
