13
Properties=species:S:1:pos:R:3 gdb_423=T pbc="F F F"
C        0.05480000       1.58700000      -0.03080000
C        0.02500000       0.06840000       0.04440000
N        0.95320000      -0.65640000      -0.87450000
C        1.48630000      -1.52220000       0.21070000
C        0.75380000      -0.61870000       1.21560000
O        0.76920000      -0.47290000       2.40030000
H        1.08400000       1.95240000       0.01700000
H       -0.39000000       1.93910000      -0.96670000
H       -0.51050000       2.01570000       0.80260000
H       -1.01420000      -0.29510000      -0.00250000
H        0.48550000      -1.16640000      -1.61430000
H        1.10600000      -2.55340000       0.23570000
H        2.57900000      -1.55070000       0.28220000
