16
Properties=species:S:1:pos:R:3 gdb_44664=T pbc="F F F"
O       -0.04980000       0.02350000       0.31410000
C       -0.06810000       1.20490000       0.11570000
C       -1.30340000       2.10810000      -0.02420000
C       -0.76640000       3.44660000       0.55130000
C       -0.59600000       3.28130000       2.05190000
C        0.64750000       2.90080000       2.36010000
C        1.51440000       2.88460000       1.14210000
C        0.69100000       3.42180000       0.03000000
N        1.10290000       2.01890000      -0.03050000
H       -1.56800000       2.22020000      -1.08280000
H       -2.15550000       1.67620000       0.50320000
H       -1.35370000       4.31480000       0.24900000
H       -1.43360000       3.31950000       2.73900000
H        1.00830000       2.62190000       3.34180000
H        2.58830000       3.01330000       1.21680000
H        1.04850000       4.09330000      -0.74350000
