14
Properties=species:S:1:pos:R:3 gdb_32034=T pbc="F F F"
C        0.08160000       1.44810000       0.06420000
N       -0.08620000       0.00690000       0.13340000
C       -1.26100000      -0.62480000       0.04050000
N       -2.39590000       0.02240000      -0.12590000
C       -3.47440000      -0.78520000      -0.19720000
N       -3.53250000      -2.09100000      -0.12420000
C       -2.36800000      -2.77190000       0.04750000
O       -2.17740000      -3.94180000       0.14010000
O       -1.15530000      -1.94520000       0.13280000
H        0.72470000       1.72100000      -0.77830000
H       -0.90140000       1.89590000      -0.07350000
H        0.52650000       1.82890000       0.98880000
H        0.71950000      -0.58620000       0.25970000
H       -4.42420000      -0.27010000      -0.33480000
