20
Properties=species:S:1:pos:R:3 gdb_109053=T pbc="F F F"
C        0.35180000       1.08390000       0.60500000
C       -0.31570000       0.24930000      -0.49990000
C        0.66930000      -0.30130000      -1.49370000
N        0.63930000       0.01570000      -2.72290000
C        1.66080000      -0.49270000      -3.58590000
C        3.11340000      -0.17120000      -3.27990000
C        2.59010000      -1.56750000      -3.08090000
C        2.27450000      -2.07890000      -1.69670000
O        1.57890000      -1.12130000      -0.88460000
H        1.08020000       0.48670000       1.15900000
H        0.87140000       1.94880000       0.18070000
H       -0.39780000       1.45290000       1.31100000
H       -0.85320000      -0.59080000      -0.04260000
H       -1.03680000       0.84950000      -1.05810000
H        1.36930000      -0.50160000      -4.63050000
H        3.78280000       0.00940000      -4.11370000
H        3.30520000       0.43900000      -2.40340000
H        2.91570000      -2.33760000      -3.77420000
H        1.65210000      -2.98130000      -1.77390000
H        3.17470000      -2.33700000      -1.12990000
