18
Properties=species:S:1:pos:R:3 gdb_55883=T pbc="F F F"
N        0.50020000       0.10310000       0.93280000
C       -0.02550000       0.10850000      -0.32700000
O        0.32380000       0.90380000      -1.17640000
C       -1.10720000      -0.94050000      -0.60390000
C       -1.04580000      -2.20630000       0.22200000
C       -1.71610000      -2.30400000       1.57030000
C       -2.28040000      -3.08450000       0.39220000
C       -3.54010000      -2.71280000      -0.18240000
C       -4.59780000      -2.41060000      -0.66940000
H        1.16070000       0.82390000       1.17260000
H        0.16610000      -0.51760000       1.64850000
H       -2.07860000      -0.45170000      -0.46410000
H       -1.03800000      -1.16960000      -1.67100000
H       -0.12150000      -2.76790000       0.11720000
H       -1.23890000      -2.87340000       2.36060000
H       -2.30150000      -1.45580000       1.90910000
H       -2.08950000      -4.15360000       0.40430000
H       -5.53170000      -2.14480000      -1.09890000
