19
Properties=species:S:1:pos:R:3 gdb_17519=T pbc="F F F"
C       -0.07400000       1.52330000       0.07040000
C        0.02440000      -0.00640000       0.00980000
C        0.71790000      -0.49540000      -1.23190000
C        0.07370000      -0.38730000      -2.63600000
C        0.82800000      -1.67210000      -2.91220000
C        2.14120000      -1.61580000      -2.20100000
C        2.23570000      -0.29470000      -1.46510000
N        0.90620000      -2.04230000      -1.45710000
H        0.91790000       1.98740000       0.06000000
H       -0.63590000       1.92070000      -0.78150000
H       -0.58240000       1.84560000       0.98360000
H        0.56530000      -0.38370000       0.88660000
H       -0.97820000      -0.44990000       0.05060000
H       -1.00420000      -0.56740000      -2.58960000
H        0.27680000       0.50230000      -3.24200000
H        0.61680000      -2.42280000      -3.66580000
H        2.93610000      -2.32340000      -2.40970000
H        2.57310000       0.60070000      -1.99830000
H        2.79540000      -0.40450000      -0.53170000
