22
Properties=species:S:1:pos:R:3 gdb_101785=T pbc="F F F"
C       -0.09820000       1.54560000      -0.34870000
C       -0.11210000       0.18850000       0.36060000
C       -1.38220000      -0.64340000       0.10890000
N       -1.61100000      -0.95090000      -1.32100000
H       -2.54020000      -2.42000000      -1.40360000
H       -1.90000000      -0.12310000      -1.83180000
H       -0.74360000      -1.26860000      -1.75010000
C       -1.37580000      -1.94760000       0.92330000
C       -2.72590000      -2.69850000       0.99860000
C       -3.01710000      -3.74690000      -0.08220000
O       -2.87390000      -3.35680000      -1.35260000
O       -3.38120000      -4.86150000       0.19680000
H        0.80990000       2.10450000      -0.10580000
H       -0.13050000       1.43810000      -1.43810000
H       -0.95520000       2.15900000      -0.04780000
H        0.76330000      -0.40170000       0.05430000
H       -0.00960000       0.34420000       1.44120000
H       -2.25010000      -0.05130000       0.43080000
H       -0.59110000      -2.61300000       0.53890000
H       -1.07660000      -1.69320000       1.94560000
H       -2.79560000      -3.23750000       1.94480000
H       -3.54800000      -1.96970000       0.98910000
