20
Properties=species:S:1:pos:R:3 gdb_32631=T pbc="F F F"
C        0.00650000       1.57130000       0.01120000
C       -0.01620000       0.04130000      -0.05120000
N        0.70790000      -0.50120000      -1.18760000
C        0.15720000      -0.91260000      -2.36040000
N        1.06350000      -1.29820000      -3.23400000
C        2.26540000      -1.13450000      -2.59370000
N        3.47420000      -1.50710000      -3.20990000
C        2.08820000      -0.64930000      -1.31680000
C        3.07480000      -0.36920000      -0.23650000
H        1.02850000       1.94840000       0.10570000
H       -0.43240000       2.00110000      -0.89380000
H       -0.56700000       1.92220000       0.87480000
H        0.40250000      -0.38260000       0.86760000
H       -1.04730000      -0.31800000      -0.12370000
H       -0.91170000      -0.91120000      -2.51760000
H        3.28180000      -1.81450000      -4.15610000
H        4.14460000      -0.74840000      -3.24720000
H        3.25120000       0.70160000      -0.06470000
H        2.77660000      -0.80520000       0.72510000
H        4.03270000      -0.82010000      -0.51080000
