21
Properties=species:S:1:pos:R:3 gdb_70873=T pbc="F F F"
C       -0.16470000       1.52670000      -0.07480000
C       -0.02840000       0.04300000       0.00840000
C        0.00300000      -1.05400000      -1.04570000
C        1.29080000      -1.64670000      -0.48980000
C        0.91760000      -0.93750000       0.84710000
C        1.97410000      -0.52490000       1.83840000
C       -0.36600000      -1.69530000       1.31450000
C       -1.03460000      -1.06600000       0.09920000
O       -2.38710000      -0.92730000      -0.14720000
H        0.73910000       2.00070000      -0.47500000
H       -1.00040000       1.79230000      -0.73090000
H       -0.36600000       1.97000000       0.90770000
H       -0.32990000      -0.97530000      -2.07400000
H        1.40950000      -2.73720000      -0.46310000
H        2.17680000      -1.19660000      -0.95010000
H        2.75190000       0.08340000       1.36350000
H        1.54760000       0.05860000       2.66180000
H        2.46200000      -1.40500000       2.27490000
H       -0.30570000      -2.78820000       1.39660000
H       -0.76430000      -1.27450000       2.24300000
H       -2.70190000      -1.72790000      -0.58150000
