25
Properties=species:S:1:pos:R:3 gdb_94542=T pbc="F F F"
C        0.41950000       1.54900000      -0.56490000
C        0.86580000       0.11530000      -0.29840000
C        2.34370000      -0.18870000      -0.63310000
O        2.66350000      -0.43730000       0.74810000
C        1.26570000      -0.39390000       1.12680000
C        1.03190000       0.31540000       2.47230000
C        1.61050000       1.74160000       2.51290000
C       -0.47700000       0.33260000       2.77400000
C        1.75590000      -0.53490000       3.53950000
H        1.14660000       2.28080000      -0.20560000
H        0.30940000       1.69950000      -1.64510000
H       -0.54810000       1.77360000      -0.10560000
H        0.16110000      -0.56820000      -0.78040000
H        2.50820000      -1.07690000      -1.25780000
H        2.92550000       0.64660000      -1.04270000
H        0.89140000      -1.42400000       1.24940000
H        1.00740000       2.44990000       1.94090000
H        1.64400000       2.10430000       3.54580000
H        2.62970000       1.75170000       2.11710000
H       -0.89760000      -0.67940000       2.76170000
H       -0.66300000       0.75530000       3.76720000
H       -1.03150000       0.93670000       2.04900000
H        2.82680000      -0.59500000       3.32650000
H        1.62620000      -0.09530000       4.53400000
H        1.35980000      -1.55600000       3.56930000
