16
Properties=species:S:1:pos:R:3 gdb_128409=T pbc="F F F"
C        0.17000000       1.49370000       0.01760000
N        0.13340000       0.03340000      -0.08740000
H        1.18420000      -1.22480000       0.89680000
H       -0.78310000      -0.29840000       0.20210000
C        0.39430000      -0.46720000      -1.45360000
C        0.64330000      -1.93770000      -1.36930000
C        1.15230000      -2.62030000      -0.28370000
O        1.48350000      -2.17140000       0.91200000
O        1.27410000      -3.89450000      -0.55960000
N        0.78740000      -4.02120000      -1.97780000
N        0.45320000      -2.87190000      -2.34100000
H        1.18490000       1.84650000      -0.18920000
H       -0.51510000       1.99650000      -0.68170000
H       -0.09240000       1.79150000       1.03580000
H       -0.42210000      -0.24670000      -2.15740000
H        1.27980000       0.06670000      -1.82480000
