10
Properties=species:S:1:pos:R:3 gdb_1586=T pbc="F F F"
N       -0.04980000       1.32470000       0.00830000
C        0.08830000      -0.01850000       0.00090000
O        1.12970000      -0.64070000      -0.01150000
C       -1.28400000      -0.73050000       0.01020000
O       -2.32010000      -0.09910000       0.02360000
C       -1.23270000      -2.17080000       0.00210000
C       -1.23130000      -3.37410000      -0.00440000
H        0.76620000       1.91230000       0.00390000
H       -0.97510000       1.72230000       0.01900000
H       -1.21940000      -4.43730000      -0.01070000
