17
Properties=species:S:1:pos:R:3 gdb_81675=T pbc="F F F"
O       -0.11460000       1.43550000      -0.01060000
C        0.02580000       0.03460000      -0.02990000
C        0.18870000      -0.62030000       1.38210000
C       -1.35390000      -0.45400000       1.53970000
C       -1.37850000      -0.62990000      -0.01070000
N       -1.19510000      -2.03540000      -0.36080000
C       -0.31710000      -2.80680000       0.38610000
O       -0.27150000      -4.02020000       0.34580000
N        0.53020000      -2.02370000       1.16130000
H        0.74700000       1.82150000       0.17790000
H        0.71790000      -0.31590000      -0.80470000
H        0.87350000      -0.17250000       2.10410000
H       -1.88790000      -1.18740000       2.14670000
H       -1.61560000       0.56460000       1.82310000
H       -2.17160000      -0.18300000      -0.60940000
H       -1.96060000      -2.55210000      -0.76180000
H        1.00630000      -2.53680000       1.88570000
