18
Properties=species:S:1:pos:R:3 gdb_47105=T pbc="F F F"
O        0.12620000       0.04590000       0.30080000
C        0.07300000       1.24080000       0.11690000
N       -1.03580000       2.02870000       0.23910000
C       -0.87070000       3.43840000      -0.05490000
C        0.63410000       3.58480000      -0.42620000
C        1.46700000       4.41960000       0.56810000
C        1.96610000       3.35270000       1.54920000
O        2.23570000       2.21780000       0.73620000
C        1.24360000       2.16430000      -0.28370000
H       -1.92150000       1.61950000       0.49330000
H       -1.51730000       3.74960000      -0.88440000
H       -1.13300000       4.05840000       0.81200000
H        0.72690000       3.96770000      -1.44270000
H        2.31830000       4.87510000       0.05400000
H        0.89240000       5.21660000       1.04730000
H        2.89140000       3.61960000       2.06560000
H        1.20140000       3.12300000       2.30850000
H        1.72110000       1.77240000      -1.18510000
