13
Properties=species:S:1:pos:R:3 gdb_42803=T pbc="F F F"
O        0.05440000      -0.01170000      -0.11600000
C        0.01220000       1.16580000      -0.08920000
C       -1.03530000       2.36550000       0.07060000
O       -0.02400000       2.92670000       0.95540000
C        0.96880000       2.43660000       0.02160000
C        0.58080000       3.12520000      -1.28250000
C       -0.77510000       3.07030000      -1.23320000
C        1.46360000       3.57870000      -2.27550000
C        2.25600000       3.96290000      -3.09850000
H       -2.03130000       2.28040000       0.49540000
H        1.99490000       2.43710000       0.37720000
H       -1.49890000       3.35960000      -1.97950000
H        2.94450000       4.30310000      -3.83200000
