20
Properties=species:S:1:pos:R:3 gdb_97770=T pbc="F F F"
C       -0.33250000       1.51100000       0.16210000
C       -0.04190000       0.02900000       0.06710000
C       -1.17440000      -0.81560000      -0.48130000
N        1.33260000      -0.30270000      -0.32800000
C        0.88690000      -0.61950000       1.05810000
C        1.50550000       0.09000000       2.14200000
C        2.01340000       0.67410000       3.06680000
C        2.58780000       1.38240000       4.20880000
O        1.71590000       2.35160000       4.77740000
H        0.52690000       2.05010000       0.56300000
H       -0.56240000       1.91540000      -0.82980000
H       -1.19490000       1.69680000       0.81150000
H       -1.40940000      -0.51950000      -1.51040000
H       -0.91700000      -1.88000000      -0.48520000
H       -2.08530000      -0.69070000       0.11390000
H        1.34690000      -1.16450000      -0.87020000
H        0.67460000      -1.66590000       1.27110000
H        2.91550000       0.64870000       4.96310000
H        3.48200000       1.93410000       3.89790000
H        0.87230000       1.91700000       4.93940000
