23
Properties=species:S:1:pos:R:3 gdb_104676=T pbc="F F F"
C       -1.62510000      -0.70360000      -0.22810000
C       -0.19460000      -0.21470000       0.03080000
C        0.77260000      -0.62110000      -1.08530000
O        0.36480000      -0.00050000      -2.29750000
C        0.72120000       1.35700000      -2.43950000
C        2.32170000      -0.71570000      -0.82150000
C        2.04160000      -2.02470000      -0.02610000
C        1.15530000      -2.12160000      -1.30060000
C        2.40480000      -1.62150000      -2.08970000
H       -1.98090000      -0.35880000      -1.20220000
H       -1.67510000      -1.79770000      -0.22230000
H       -2.31130000      -0.33520000       0.54060000
H       -0.19200000       0.87940000       0.10910000
H        0.14870000      -0.57540000       1.00290000
H        0.37000000       1.67500000      -3.42460000
H        0.25420000       2.00320000      -1.68240000
H        1.81030000       1.50130000      -2.39090000
H        2.99990000       0.09010000      -0.53410000
H        2.87650000      -2.72800000       0.01240000
H        1.55490000      -1.95410000       0.94600000
H        0.48000000      -2.93200000      -1.57880000
H        2.22240000      -1.15550000      -3.05510000
H        3.25160000      -2.31140000      -2.11970000
