20
Properties=species:S:1:pos:R:3 gdb_120098=T pbc="F F F"
C       -0.23670000       1.38960000       0.02260000
O       -0.16980000      -0.00770000      -0.12730000
C        0.85430000      -0.41180000      -1.01470000
C        0.81010000      -1.93380000      -1.05020000
C        1.07540000      -2.91980000      -2.12320000
C        2.30610000      -2.71740000      -3.02410000
C        3.06800000      -1.45770000      -2.72570000
C        3.11300000      -2.60820000      -1.75360000
N        1.92050000      -2.89600000      -0.86160000
H        0.69990000       1.80290000       0.42990000
H       -0.44520000       1.89530000      -0.93400000
H       -1.04990000       1.60460000       0.71990000
H        0.67910000       0.02850000      -2.00990000
H        1.83000000      -0.05160000      -0.65310000
H       -0.01210000      -2.25720000      -0.41250000
H        0.39410000      -3.74760000      -2.30090000
H        2.48270000      -3.32450000      -3.90150000
H        3.99020000      -1.37360000      -3.29530000
H        2.59800000      -0.50280000      -2.54190000
H        4.04130000      -3.08330000      -1.46450000
