19
Properties=species:S:1:pos:R:3 gdb_14552=T pbc="F F F"
C       -0.21110000       1.62870000      -0.19950000
C       -0.10710000       0.11920000      -0.16150000
C       -1.26680000      -0.54780000       0.56800000
O       -1.21210000      -0.27620000       1.95640000
C        0.56420000      -0.71150000      -1.18440000
C        1.78920000      -0.03670000      -1.80110000
C        2.31830000       0.11690000      -0.35340000
N        1.13380000      -0.60700000       0.23040000
H        0.64610000       2.11950000      -0.66190000
H       -1.10190000       1.92050000      -0.76640000
H       -0.32570000       2.01200000       0.81880000
H       -2.22420000      -0.15530000       0.20910000
H       -1.24810000      -1.63050000       0.37280000
H       -0.33350000      -0.56700000       2.23260000
H        0.12510000      -1.63620000      -1.54960000
H        2.39330000      -0.72110000      -2.39880000
H        1.60680000       0.86940000      -2.38570000
H        3.22200000      -0.46390000      -0.15870000
H        2.46460000       1.12920000       0.03430000
