20
Properties=species:S:1:pos:R:3 gdb_60076=T pbc="F F F"
C       -0.08020000       1.35090000       0.49990000
C       -0.04550000      -0.07560000      -0.04610000
C       -1.41660000      -0.55620000      -0.50770000
O        0.82230000      -0.15830000      -1.20110000
C        2.13310000      -0.54240000      -0.96960000
C        2.42940000      -2.00910000      -0.68820000
C        2.74640000      -1.42010000      -2.03510000
C        2.99580000       0.44250000      -0.34250000
N        3.68370000       1.22410000       0.16210000
H        0.90800000       1.68070000       0.82730000
H       -0.43630000       2.04060000      -0.27170000
H       -0.76050000       1.40970000       1.35560000
H        0.34140000      -0.75750000       0.72350000
H       -1.78660000       0.07970000      -1.31800000
H       -1.36680000      -1.58470000      -0.87580000
H       -2.13450000      -0.51540000       0.31680000
H        3.24480000      -2.24910000      -0.01640000
H        1.55860000      -2.64950000      -0.61080000
H        2.08300000      -1.65350000      -2.85910000
H        3.78220000      -1.24840000      -2.30100000
