16
Properties=species:S:1:pos:R:3 gdb_32559=T pbc="F F F"
O       -0.00900000       1.41720000      -0.05380000
C       -0.00710000      -0.00300000      -0.06920000
C       -1.41560000      -0.50270000       0.01840000
C       -2.46960000       0.32860000       0.09690000
N       -3.74940000      -0.19350000       0.17560000
C       -3.92030000      -1.54720000       0.17230000
N       -2.97100000      -2.40920000       0.10040000
C       -1.63720000      -1.95320000       0.01730000
N       -0.63320000      -2.74980000      -0.05760000
H        0.90310000       1.71410000      -0.10520000
H        0.45300000      -0.40590000      -0.98430000
H        0.56870000      -0.42490000       0.76860000
H       -2.37260000       1.40490000       0.10230000
H       -4.54740000       0.41630000       0.23490000
H       -4.95440000      -1.88250000       0.23680000
H       -0.97740000      -3.71200000      -0.04530000
