20
Properties=species:S:1:pos:R:3 gdb_99200=T pbc="F F F"
C        0.07190000       1.45210000       0.06240000
N       -0.07940000       0.01150000       0.12260000
C       -1.24900000      -0.62130000      -0.18450000
O       -2.26470000      -0.02510000      -0.49990000
C       -1.18110000      -2.14650000      -0.12650000
C       -2.56470000      -2.76250000       0.14800000
C       -2.55200000      -4.21940000       0.08890000
C       -2.51770000      -5.42190000       0.03420000
C       -2.49520000      -6.87670000      -0.03040000
H        0.36500000       1.86300000       1.03480000
H        0.82040000       1.74690000      -0.68200000
H       -0.89570000       1.86630000      -0.22270000
H        0.71670000      -0.54880000       0.37720000
H       -0.81170000      -2.50530000      -1.09500000
H       -0.45700000      -2.47890000       0.62520000
H       -2.91990000      -2.42900000       1.13090000
H       -3.27170000      -2.34670000      -0.57710000
H       -2.82620000      -7.32370000       0.91380000
H       -3.15390000      -7.25190000      -0.82160000
H       -1.48650000      -7.25220000      -0.23630000
