14
Properties=species:S:1:pos:R:3 gdb_10910=T pbc="F F F"
O       -0.18600000       1.52140000      -0.04180000
C       -0.03600000       0.11920000       0.01620000
C       -1.34900000      -0.63650000       0.11860000
C       -2.23010000      -0.27140000      -1.03250000
C       -1.14200000      -1.24370000      -1.36990000
O       -1.44090000      -2.45040000      -1.92710000
C        0.21990000      -0.66930000      -1.30720000
O        1.23900000      -1.02920000      -1.84560000
H        0.65610000       1.89620000      -0.32210000
H        0.70190000      -0.18280000       0.77250000
H       -1.69470000      -1.18030000       0.98660000
H       -3.20650000      -0.74700000      -1.03130000
H       -2.21730000       0.74160000      -1.41930000
H       -0.61360000      -2.94590000      -1.99630000
