17
Properties=species:S:1:pos:R:3 gdb_25798=T pbc="F F F"
C        0.07870000       1.49730000       0.01150000
C        0.02220000      -0.01740000      -0.01840000
O        1.02980000      -0.70630000      -0.07050000
C       -1.29320000      -0.64610000       0.01490000
C       -2.60120000      -0.20480000       0.07340000
N       -3.46980000      -1.25660000       0.07990000
C       -2.71270000      -2.34730000       0.02560000
C       -3.22170000      -3.74860000       0.00970000
N       -1.39850000      -2.02400000      -0.01500000
H        1.12120000       1.81680000       0.00570000
H       -0.43780000       1.91730000      -0.85820000
H       -0.42090000       1.88560000       0.90520000
H       -2.95460000       0.81520000       0.11120000
H       -2.92290000      -4.27620000      -0.90290000
H       -2.84600000      -4.32430000       0.86280000
H       -4.31060000      -3.72570000       0.05750000
H       -0.59240000      -2.62850000      -0.05910000
