18
Properties=species:S:1:pos:R:3 gdb_68621=T pbc="F F F"
C        0.04320000       1.51800000       0.11020000
C        0.00890000       0.02190000       0.01690000
C        0.79580000      -0.71170000      -1.09530000
C        0.58880000      -2.17150000      -0.58340000
C       -0.25520000      -1.81970000       0.65610000
O        0.46420000      -0.68770000       1.21700000
C       -1.31190000      -0.82790000       0.08950000
C       -2.27920000      -0.34950000       1.05900000
N       -3.06930000       0.04010000       1.80780000
H        1.07160000       1.85580000       0.27260000
H       -0.32130000       1.96670000      -0.81930000
H       -0.57540000       1.87320000       0.93790000
H        0.38740000      -0.53270000      -2.09330000
H        1.84320000      -0.40360000      -1.08700000
H        0.06500000      -2.81860000      -1.29150000
H        1.52270000      -2.65490000      -0.29190000
H       -0.51280000      -2.59110000       1.37950000
H       -1.80580000      -1.08610000      -0.85130000
