24
Properties=species:S:1:pos:R:3 gdb_88430=T pbc="F F F"
C        1.45970000      -3.02700000       4.41800000
C        0.96090000      -2.84430000       3.00140000
C       -0.38230000      -2.20710000       2.76310000
C        0.87060000      -1.50610000       2.28440000
C        1.28240000      -0.14550000       2.80380000
C        0.16070000       0.87740000       2.86880000
C        2.45030000       0.02270000       3.72700000
N        2.55320000       0.44630000       2.33690000
C        3.43210000      -0.33440000       1.47930000
H        1.19860000      -2.17570000       5.05270000
H        1.00860000      -3.92150000       4.86220000
H        2.54730000      -3.15380000       4.45850000
H        1.20770000      -3.67720000       2.34670000
H       -1.05740000      -2.62650000       2.02500000
H       -0.88320000      -1.79770000       3.63500000
H        1.01520000      -1.58580000       1.20840000
H       -0.59290000       0.59880000       3.61250000
H        0.56210000       1.86000000       3.12760000
H       -0.34330000       0.96080000       1.89930000
H        2.44860000       0.81740000       4.47080000
H        3.00020000      -0.86740000       4.02070000
H        3.47100000      -1.40850000       1.71920000
H        3.11520000      -0.22820000       0.43610000
H        4.44670000       0.06900000       1.56170000
