15
Properties=species:S:1:pos:R:3 gdb_45727=T pbc="F F F"
O       -0.10220000       0.19110000       0.90490000
C       -0.07350000       1.13560000       0.16740000
C       -1.33260000       1.81360000      -0.35220000
C       -1.12320000       3.20440000      -0.87100000
C        0.07680000       3.61390000      -1.25720000
C        1.27320000       2.69980000      -1.17350000
O        1.13090000       1.64280000      -0.20150000
C        1.60300000       2.13670000      -2.48580000
C        1.86620000       1.69170000      -3.57000000
H       -1.74440000       1.16760000      -1.14100000
H       -2.06200000       1.78010000       0.46200000
H       -1.98630000       3.86000000      -0.93530000
H        0.25740000       4.60100000      -1.66750000
H        2.13960000       3.26670000      -0.81180000
H        2.10380000       1.29180000      -4.52520000
