17
Properties=species:S:1:pos:R:3 gdb_98922=T pbc="F F F"
C       -0.54080000       1.47850000      -0.14610000
C       -0.32010000      -0.02910000      -0.23180000
C       -1.18600000      -0.82500000       0.72610000
O       -1.86270000      -0.32490000       1.58990000
C       -1.16700000      -2.35690000       0.52660000
C       -2.08190000      -2.72200000      -0.63970000
O       -1.73740000      -2.59690000      -1.79580000
C       -3.40460000      -3.18850000      -0.27950000
C       -4.49950000      -3.57970000       0.03190000
H        0.13620000       2.00590000      -0.82350000
H       -1.56780000       1.73880000      -0.41630000
H       -0.36950000       1.84050000       0.87050000
H       -0.49080000      -0.42020000      -1.24280000
H        0.72390000      -0.29050000      -0.00320000
H       -0.15760000      -2.68350000       0.26190000
H       -1.50030000      -2.82790000       1.45150000
H       -5.47130000      -3.92130000       0.29530000
