18
Properties=species:S:1:pos:R:3 gdb_73111=T pbc="F F F"
C       -0.09570000       1.55550000       0.03390000
C        0.02680000       0.04950000       0.03360000
C       -1.21400000      -0.82240000       0.33900000
N       -0.36620000      -1.70430000       1.17910000
C        0.74180000      -0.71700000       1.18880000
C        2.03210000      -1.24240000       0.58790000
C        1.80260000      -1.13220000      -0.92030000
O        2.46360000      -1.58850000      -1.80440000
O        0.68890000      -0.37720000      -1.16630000
H        0.89190000       2.02350000      -0.02530000
H       -0.68130000       1.89220000      -0.82730000
H       -0.59110000       1.90190000       0.94550000
H       -1.98430000      -0.26170000       0.88480000
H       -1.67160000      -1.32030000      -0.52120000
H       -0.74670000      -1.93830000       2.08780000
H        0.86700000      -0.15180000       2.11790000
H        2.90580000      -0.63570000       0.85030000
H        2.24230000      -2.27960000       0.85360000
