17
Properties=species:S:1:pos:R:3 gdb_94777=T pbc="F F F"
C        0.23640000       1.58010000      -0.02500000
C        0.06450000       0.06950000       0.02320000
O        0.70120000      -0.49950000      -1.12020000
C        1.19400000      -1.79800000      -0.81570000
C        1.42400000      -1.80050000       0.68060000
O        2.13500000      -0.64240000       1.15760000
C        0.71750000      -0.61700000       1.21420000
C        1.60450000      -3.04500000       1.47110000
O        1.40340000      -4.15060000       1.03440000
H        1.29670000       1.83590000       0.04110000
H       -0.16120000       1.97020000      -0.96530000
H       -0.30040000       2.05660000       0.80110000
H       -1.00780000      -0.19250000       0.03950000
H        0.47420000      -2.59060000      -1.06580000
H        2.10770000      -1.95780000      -1.39540000
H        0.26910000      -0.57560000       2.20410000
H        1.94980000      -2.86320000       2.51180000
