17
Properties=species:S:1:pos:R:3 gdb_76940=T pbc="F F F"
C       -0.36910000       1.40990000      -0.12370000
N       -0.00130000       0.00160000       0.02130000
C        1.30410000      -0.50870000      -0.39260000
C        2.42640000       0.33820000      -0.89070000
O        2.62070000       1.50200000      -0.62290000
C        0.87850000      -0.43930000       1.08220000
C        1.53700000       0.50180000       2.07590000
C        0.48670000      -1.71390000       1.66740000
N        0.20220000      -2.72440000       2.15120000
H        0.45370000       2.11820000      -0.00080000
H       -0.79210000       1.53780000      -1.12380000
H       -1.15590000       1.62380000       0.60490000
H        1.25990000      -1.48440000      -0.87240000
H        3.10800000      -0.20730000      -1.57830000
H        1.97710000       1.36340000       1.57660000
H        0.79660000       0.84410000       2.80520000
H        2.32290000      -0.02740000       2.62120000
