16
Properties=species:S:1:pos:R:3 gdb_44469=T pbc="F F F"
O        0.07430000       0.02520000       0.10480000
C       -0.03040000       1.20560000      -0.00270000
C       -1.36150000       2.03630000      -0.08470000
C       -0.83280000       3.34640000      -0.65180000
N       -0.67440000       4.80450000      -0.06410000
C        0.01720000       4.13220000       1.12800000
C        0.55630000       3.35360000      -0.08820000
C        0.72840000       4.73900000      -0.74650000
O        1.08350000       2.04200000      -0.05870000
H       -2.07170000       1.51110000      -0.72390000
H       -1.78960000       2.07740000       0.91970000
H       -0.93500000       3.39340000      -1.73770000
H        0.70360000       4.79380000       1.65900000
H       -0.66790000       3.64120000       1.81900000
H        0.69080000       4.79900000      -1.83530000
H        1.43710000       5.44610000      -0.31220000
