21
Properties=species:S:1:pos:R:3 gdb_88621=T pbc="F F F"
C        0.22670000       1.58400000      -0.51890000
C        0.03600000       0.12210000      -0.17780000
C        1.21890000      -0.80940000      -0.07210000
C        0.42970000      -0.45220000       1.16790000
C        1.04860000       0.37630000       2.25040000
C        0.26850000       1.15570000       3.30470000
C       -0.92910000       0.33560000       3.77000000
O       -0.08950000      -0.82690000       4.01670000
C        1.07660000      -0.06520000       3.68460000
H        1.14500000       1.98650000      -0.08080000
H        0.29120000       1.72680000      -1.60330000
H       -0.60730000       2.19320000      -0.15240000
H       -0.86090000      -0.31380000      -0.61170000
H        1.14010000      -1.81550000      -0.46940000
H        2.20720000      -0.37020000      -0.17700000
H       -0.21560000      -1.23440000       1.55440000
H        1.95800000       0.90580000       1.97350000
H        0.43380000       2.20530000       3.50740000
H       -1.36450000       0.69290000       4.70960000
H       -1.72590000       0.13070000       3.04560000
H        1.96190000      -0.21330000       4.29310000
