12
Properties=species:S:1:pos:R:3 gdb_2673=T pbc="F F F"
O       -0.09980000       1.44560000       0.01080000
C        0.04600000       0.03970000       0.00180000
C       -1.37820000      -0.53650000       0.01230000
C       -1.39830000      -1.98700000       0.00460000
C       -1.39650000      -3.19520000      -0.00210000
C       -1.39690000      -4.56030000      -0.00940000
N       -1.39510000      -5.72210000      -0.01560000
H        0.77560000       1.84370000       0.00500000
H        0.57700000      -0.31510000      -0.89350000
H        0.59400000      -0.32470000       0.88290000
H       -1.90250000      -0.16030000       0.89900000
H       -1.91940000      -0.15060000      -0.86000000
