20
Properties=species:S:1:pos:R:3 gdb_76952=T pbc="F F F"
C       -0.30370000       1.40910000      -0.38050000
N       -0.04340000      -0.00500000      -0.11180000
C        1.31900000      -0.56230000      -0.27560000
C        2.51100000       0.25640000      -0.59670000
O        2.70330000       1.40460000      -0.25750000
C        0.64030000      -0.39370000       1.07330000
C        1.15760000       0.44650000       2.25140000
C        1.07660000      -0.83900000       3.12770000
C        0.23850000      -1.53630000       2.01550000
H        0.50500000       2.08330000      -0.08250000
H       -0.48480000       1.53170000      -1.45220000
H       -1.22160000       1.68230000       0.14970000
H        1.32920000      -1.55420000      -0.72420000
H        3.27280000      -0.28860000      -1.19870000
H        2.12730000       0.93140000       2.13590000
H        0.42750000       1.20470000       2.55210000
H        2.05440000      -1.30590000       3.26630000
H        0.59910000      -0.73480000       4.10340000
H       -0.83640000      -1.51900000       2.21940000
H        0.52340000      -2.54990000       1.72460000
