21
Properties=species:S:1:pos:R:3 gdb_119955=T pbc="F F F"
C       -0.19010000       1.44460000      -0.15510000
C       -0.34380000      -0.03420000      -0.46060000
O       -1.28080000      -0.58620000       0.45920000
C       -1.45620000      -1.95270000       0.32660000
C       -2.73170000      -2.52560000       0.82060000
C       -3.78760000      -1.66580000       1.48420000
C       -2.46880000      -2.49770000      -0.69990000
C       -3.20210000      -1.57370000      -1.58800000
O       -3.54930000      -1.85780000      -2.71190000
H        0.52770000       1.89970000      -0.84370000
H       -1.14770000       1.96190000      -0.26250000
H        0.16720000       1.59140000       0.86790000
H       -0.69670000      -0.18950000      -1.49140000
H        0.62060000      -0.55690000      -0.36310000
H       -0.54010000      -2.53650000       0.43220000
H       -2.65230000      -3.52700000       1.23450000
H       -3.72490000      -0.62470000       1.16530000
H       -4.79350000      -2.03920000       1.26930000
H       -3.64810000      -1.68340000       2.57000000
H       -2.23290000      -3.44620000      -1.17120000
H       -3.41880000      -0.57130000      -1.16350000
