25
Properties=species:S:1:pos:R:3 gdb_104400=T pbc="F F F"
C        0.11100000       1.66830000      -0.11240000
C        0.17480000       0.13610000      -0.12470000
C        0.67780000      -0.51840000       1.17840000
C        2.14650000      -0.13310000       1.44260000
C       -0.20270000      -0.19420000       2.41250000
C        0.04500000      -1.34280000       3.42370000
C        0.65470000      -2.50990000       2.59720000
C        0.56510000      -2.06450000       1.12530000
O       -0.71190000      -2.38860000       0.57530000
H        1.09460000       2.12840000       0.02590000
H       -0.28820000       2.03860000      -1.06220000
H       -0.54370000       2.03810000       0.68350000
H       -0.81880000      -0.26170000      -0.34460000
H        0.82180000      -0.18870000      -0.95130000
H        2.25040000       0.94900000       1.56020000
H        2.53940000      -0.59380000       2.35370000
H        2.78970000      -0.44120000       0.61060000
H        0.02110000       0.78780000       2.83910000
H       -1.25320000      -0.18580000       2.10680000
H        0.73320000      -1.03290000       4.21540000
H       -0.88280000      -1.63790000       3.92000000
H        1.69660000      -2.69300000       2.87710000
H        0.12450000      -3.45670000       2.74610000
H        1.36240000      -2.50490000       0.50720000
H       -0.83100000      -3.33980000       0.65200000
