14
Properties=species:S:1:pos:R:3 gdb_864=T pbc="F F F"
C        0.11670000       1.45110000       0.02520000
C       -0.06960000      -0.02020000      -0.03730000
C       -1.14230000      -0.83830000      -0.16800000
C       -0.65560000      -2.19280000      -0.14550000
C        0.69510000      -2.09000000      -0.00790000
N        1.73720000      -3.01040000      -0.00630000
O        1.07490000      -0.79080000       0.05900000
H        0.76060000       1.81750000      -0.78370000
H       -0.85340000       1.94580000      -0.06450000
H        0.57240000       1.76780000       0.97150000
H       -2.16980000      -0.52160000      -0.26320000
H       -1.22990000      -3.10210000      -0.22050000
H        1.42810000      -3.93920000       0.24570000
H        2.50590000      -2.72210000       0.58670000
