18
Properties=species:S:1:pos:R:3 gdb_99887=T pbc="F F F"
C       -0.21800000       1.56870000      -0.04180000
C       -0.10120000       0.03260000      -0.02830000
C        0.81730000      -0.41750000       1.15230000
O        0.33600000      -0.01180000       2.41080000
C       -1.42250000      -0.57440000       0.19260000
N       -2.44480000      -1.06950000       0.40980000
C        0.48100000      -0.54780000      -1.32160000
C        0.43430000       0.12850000      -2.62140000
O        1.63480000       0.10500000      -1.83860000
H        0.72720000       1.99180000      -0.39060000
H       -1.02570000       1.90910000      -0.69310000
H       -0.41420000       1.92130000       0.97180000
H        0.96210000      -1.50620000       1.10030000
H        1.79050000       0.06210000       1.01480000
H       -0.47000000      -0.50650000       2.59990000
H        0.54620000      -1.63690000      -1.32030000
H        0.46070000      -0.46900000      -3.53040000
H       -0.03920000       1.10230000      -2.71530000
