17
Properties=species:S:1:pos:R:3 gdb_1179=T pbc="F F F"
C       -0.11340000       1.47440000       0.11080000
N       -0.00020000       0.02630000      -0.03380000
C        0.71690000      -0.47210000      -1.22080000
C       -0.02100000      -0.04280000      -2.50570000
C        2.20830000      -0.05740000      -1.29160000
C        0.66280000      -1.94830000      -1.13150000
N        0.64980000      -3.10140000      -1.06050000
H        0.83970000       2.02740000       0.08990000
H       -0.75930000       1.88500000      -0.67060000
H       -0.59670000       1.68060000       1.06960000
H        0.42980000      -0.36740000       0.79600000
H        0.07490000       1.03560000      -2.65490000
H        0.41010000      -0.54370000      -3.37530000
H       -1.08030000      -0.29890000      -2.43670000
H        2.74140000      -0.37630000      -0.39130000
H        2.69960000      -0.51040000      -2.15710000
H        2.29200000       1.02870000      -1.38230000
