21
Properties=species:S:1:pos:R:3 gdb_112523=T pbc="F F F"
C        0.10980000       1.52890000      -0.06140000
C        0.07170000       0.00920000       0.08540000
N       -1.28780000      -0.49610000       0.10520000
C       -2.11700000      -0.25250000       1.29560000
C       -2.73280000      -1.67360000       1.12600000
C       -4.02670000      -1.69880000       0.46520000
N       -5.05900000      -1.72590000      -0.05540000
C       -1.49900000      -1.95420000       0.19750000
C       -1.67540000      -2.69430000      -1.11380000
H        1.14310000       1.88660000      -0.09320000
H       -0.39770000       1.83910000      -0.97900000
H       -0.38550000       2.02120000       0.78220000
H        0.58770000      -0.45710000      -0.76250000
H        0.62380000      -0.29220000       0.99890000
H       -1.53920000      -0.18830000       2.23260000
H       -2.79830000       0.59950000       1.23120000
H       -2.78100000      -2.27870000       2.03240000
H       -0.71970000      -2.44290000       0.80920000
H       -2.48550000      -2.25590000      -1.70130000
H       -0.75380000      -2.64330000      -1.70290000
H       -1.90040000      -3.75110000      -0.93650000
