16
Properties=species:S:1:pos:R:3 gdb_70776=T pbc="F F F"
C        0.05970000       1.40610000      -0.15340000
C        0.00920000      -0.07710000      -0.02070000
O        0.52640000      -0.92640000      -1.09250000
C        0.06480000      -1.89780000      -0.10490000
C        0.18550000      -3.30010000      -0.33350000
C        0.26870000      -4.49020000      -0.48700000
C        0.49940000      -1.01520000       1.12900000
N       -0.84280000      -1.00020000       1.78620000
C       -1.17910000      -1.02950000       0.33040000
H        1.09290000       1.74830000      -0.26470000
H       -0.51030000       1.73460000      -1.02760000
H       -0.37010000       1.86500000       0.74170000
H        0.34670000      -5.53960000      -0.63220000
H        1.44870000      -1.01930000       1.66550000
H       -1.03880000      -1.90790000       2.21450000
H       -2.19400000      -1.05040000      -0.06790000
