17
Properties=species:S:1:pos:R:3 gdb_6671=T pbc="F F F"
C       -0.24910000       1.34830000      -0.35410000
C       -0.12410000      -0.15420000      -0.20440000
O        0.57790000      -0.82730000      -0.92420000
C       -0.91650000      -0.80330000       0.94020000
N       -0.92790000      -2.25260000       0.92950000
C       -1.81450000      -2.84010000      -0.06900000
C       -1.99110000      -4.32880000       0.18440000
O       -2.28830000      -5.13050000      -0.66120000
H        0.49740000       1.71880000      -1.05750000
H       -1.24970000       1.59610000      -0.72830000
H       -0.13840000       1.85090000       0.61270000
H       -0.46700000      -0.44210000       1.87820000
H       -1.94510000      -0.42100000       0.94140000
H        0.02110000      -2.56330000       0.73850000
H       -2.81300000      -2.39250000       0.05140000
H       -1.51570000      -2.68820000      -1.11600000
H       -1.83470000      -4.61780000       1.24860000
