20
Properties=species:S:1:pos:R:3 gdb_91209=T pbc="F F F"
C       -0.52890000       1.39240000       0.09350000
C        0.05780000      -0.00570000      -0.03130000
C        1.37140000      -0.19990000      -0.85900000
C        2.04280000      -0.84360000       0.36620000
O        2.72910000       0.15340000       1.19010000
C        1.61400000       0.31560000       1.99250000
N        1.44290000       1.02570000       3.01290000
C        0.75190000      -0.66220000       1.22240000
C        0.00840000      -1.72180000       2.00180000
H        0.21530000       2.10950000       0.45270000
H       -0.89600000       1.74250000      -0.87740000
H       -1.36840000       1.40940000       0.79630000
H       -0.71340000      -0.69560000      -0.38900000
H        1.26260000      -0.87190000      -1.71350000
H        1.86790000       0.71580000      -1.18900000
H        2.62990000      -1.75780000       0.27890000
H        2.28620000       1.55410000       3.24450000
H       -0.80860000      -1.26610000       2.57100000
H       -0.42160000      -2.47540000       1.33380000
H        0.66420000      -2.22850000       2.71670000
