17
Properties=species:S:1:pos:R:3 gdb_47879=T pbc="F F F"
O       -0.00630000      -0.04380000      -0.20630000
C       -0.03020000       1.14950000      -0.04510000
C       -1.29830000       1.96620000       0.15430000
C       -1.77300000       2.57040000      -1.18880000
O       -0.72250000       2.90590000      -2.07870000
C        0.28800000       3.75970000      -1.56880000
C        1.52350000       2.95420000      -1.13190000
C        1.27600000       1.97710000       0.00270000
O        2.03260000       1.82520000       0.93150000
H       -2.07900000       1.31660000       0.55850000
H       -1.09810000       2.75880000       0.88480000
H       -2.36600000       1.82780000      -1.72810000
H       -2.41230000       3.44420000      -0.99350000
H        0.57820000       4.43280000      -2.38210000
H       -0.09160000       4.38480000      -0.74840000
H        1.85310000       2.36610000      -1.99920000
H        2.34590000       3.61380000      -0.83900000
