16
Properties=species:S:1:pos:R:3 gdb_46614=T pbc="F F F"
O       -0.02620000      -0.06040000       0.02210000
C        0.02720000       1.15020000       0.01680000
N       -1.05270000       2.02000000       0.05990000
C       -0.69110000       3.42740000       0.03890000
C        0.80400000       3.33090000      -0.02280000
C        1.20170000       2.06100000      -0.03480000
C        2.69010000       1.97960000      -0.09610000
O        3.10640000       3.35810000      -0.11820000
C        1.98360000       4.24570000      -0.07460000
H       -1.99840000       1.67930000       0.09700000
H       -1.11180000       3.95110000      -0.83160000
H       -1.03840000       3.95860000       0.93670000
H        3.13120000       1.47490000       0.77460000
H        3.05790000       1.46870000      -0.99660000
H        1.98580000       4.89540000      -0.96370000
H        2.05900000       4.90130000       0.80690000
