17
Properties=species:S:1:pos:R:3 gdb_28701=T pbc="F F F"
C        0.16820000       1.58890000      -0.33160000
C        0.00930000       0.12950000      -0.06560000
C       -0.59070000      -0.86720000      -0.79750000
C       -0.44400000      -2.10230000      -0.09270000
C        0.23830000      -1.80210000       1.05830000
N        0.51060000      -0.46140000       1.07970000
O        0.69400000      -2.55970000       2.09780000
C       -0.15780000      -3.48860000       2.61470000
N        0.27910000      -4.32470000       3.44770000
H       -0.31190000       2.20830000       0.43670000
H        1.22240000       1.88950000      -0.38090000
H       -0.29090000       1.83950000      -1.29060000
H       -1.07800000      -0.73160000      -1.75110000
H       -0.77000000      -3.08120000      -0.40520000
H        1.00850000      -0.00100000       1.82260000
H       -1.17670000      -3.38490000       2.22500000
H       -0.47720000      -4.93050000       3.75930000
