17
Properties=species:S:1:pos:R:3 gdb_34682=T pbc="F F F"
C       -0.04910000      -1.09560000      -0.06200000
C        0.00630000       0.10480000      -0.01180000
C        0.06390000       1.53810000       0.04500000
C        0.56750000       2.15050000       1.34140000
C        1.43630000       2.17610000       0.08110000
C        1.29900000       3.71510000       0.04300000
O        0.18010000       4.25770000      -0.70230000
C       -0.61880000       4.38330000       0.50690000
C        0.47610000       3.69420000       1.34450000
H       -0.10140000      -2.15480000      -0.11030000
H       -0.70490000       2.04790000      -0.52660000
H        0.66900000       1.53160000       2.22350000
H        2.32380000       1.60700000      -0.16420000
H        2.22130000       4.28250000      -0.09940000
H       -0.77890000       5.43780000       0.76160000
H       -1.58870000       3.88000000       0.42190000
H        0.81610000       4.17580000       2.25950000
