19
Properties=species:S:1:pos:R:3 gdb_61775=T pbc="F F F"
C       -0.01190000       2.02590000      -0.30360000
C       -0.08970000       0.54840000       0.07480000
N       -1.48370000       0.15680000       0.25200000
C       -1.84960000      -0.95740000       0.93950000
O       -1.07000000      -1.75580000       1.41680000
C        0.61660000      -0.40730000      -0.94260000
C        0.01680000      -0.38220000      -2.36030000
C        2.05050000      -0.11060000      -0.97880000
N        3.17720000       0.14690000      -1.00810000
H        1.02810000       2.32630000      -0.45000000
H       -0.55830000       2.23550000      -1.22960000
H       -0.43760000       2.64430000       0.49170000
H        0.41220000       0.39310000       1.03540000
H       -2.20570000       0.76340000      -0.10330000
H       -2.94970000      -1.06040000       1.01730000
H        0.50430000      -1.41350000      -0.52460000
H       -1.05540000      -0.58740000      -2.30950000
H        0.16870000       0.58430000      -2.84760000
H        0.48250000      -1.14830000      -2.98430000
