11
Properties=species:S:1:pos:R:3 gdb_130815=T pbc="F F F"
O       -0.10010000      -0.01250000       0.00140000
C       -0.00880000       1.19190000       0.00700000
C        1.24630000       1.90710000      -0.00080000
C        2.27640000       2.53660000      -0.00700000
C        3.48310000       3.27420000      -0.01430000
N        4.66110000       2.68370000      -0.03220000
O        5.54980000       3.74720000      -0.03330000
C        4.81250000       4.86370000      -0.01610000
N        3.53730000       4.65790000      -0.00360000
H       -0.90060000       1.84890000       0.01920000
H        5.34280000       5.80450000      -0.01420000
