19
Properties=species:S:1:pos:R:3 gdb_7379=T pbc="F F F"
C       -0.16530000       1.30100000       0.08150000
O       -0.00200000      -0.09320000      -0.01820000
C        0.64100000      -0.65020000       1.10770000
C        0.81840000      -2.15320000       0.87070000
C        1.70720000      -2.42700000      -0.35380000
C        1.45460000      -2.76800000       2.11820000
N        0.78330000      -3.82370000       2.66250000
O        2.49270000      -2.34290000       2.59120000
H        0.80160000       1.82050000       0.17160000
H       -0.66510000       1.63870000      -0.82980000
H       -0.78380000       1.57910000       0.94990000
H        1.62640000      -0.18930000       1.27370000
H        0.04030000      -0.47420000       2.01660000
H       -0.17580000      -2.58400000       0.70010000
H        1.75680000      -3.49740000      -0.57630000
H        1.30900000      -1.90530000      -1.22600000
H        2.72350000      -2.07180000      -0.16070000
H       -0.05090000      -4.20190000       2.25090000
H        1.19060000      -4.29100000       3.45630000
