13
Properties=species:S:1:pos:R:3 gdb_131905=T pbc="F F F"
O        0.09080000       1.35090000      -0.14270000
C        0.06630000       0.00020000      -0.00880000
C        0.00780000      -0.86640000      -1.09610000
N       -0.00200000      -2.13910000      -0.60640000
C        0.04850000      -2.09140000       0.75260000
C        0.09250000      -0.77190000       1.17150000
N        0.04950000      -3.29480000       1.49950000
O        0.00340000      -4.35080000       0.85770000
O        0.09620000      -3.20920000       2.72320000
H        0.13120000       1.75310000       0.73040000
H       -0.02600000      -0.65460000      -2.15130000
H       -0.03950000      -3.00740000      -1.11530000
H        0.13700000      -0.43930000       2.19560000
