16
Properties=species:S:1:pos:R:3 gdb_42480=T pbc="F F F"
O       -0.02350000       0.08130000       0.75940000
C        0.02760000       1.12020000       0.12600000
N        1.15580000       1.59760000      -0.47620000
C        2.43620000       0.91920000      -0.39250000
C        3.48290000       1.80390000       0.23990000
C        4.86710000       1.82650000      -0.24330000
O        3.95910000       2.87650000      -0.58250000
C       -1.13450000       1.98000000      -0.06360000
C       -2.11060000       2.66790000      -0.20180000
H        1.11020000       2.48010000      -0.96130000
H        2.27470000       0.01820000       0.20450000
H        2.77130000       0.61870000      -1.39280000
H        3.28670000       2.09130000       1.27340000
H        5.67030000       2.10250000       0.43750000
H        5.15950000       1.17720000      -1.06760000
H       -2.98090000       3.26700000      -0.31650000
