19
Properties=species:S:1:pos:R:3 gdb_39690=T pbc="F F F"
C        0.02500000       1.43010000      -0.19790000
O        1.33920000       1.57390000       0.37060000
C        1.46050000       0.14900000       0.57230000
C        0.03590000      -0.10060000       0.03030000
C       -0.97370000      -0.63640000       1.02720000
C       -2.41800000      -0.74630000       0.50300000
O       -2.91240000      -1.90430000       1.15580000
C       -1.81460000      -2.77770000       1.20350000
O       -0.65280000      -1.98730000       1.38160000
H       -0.73110000       1.99250000       0.36720000
H       -0.01030000       1.75020000      -1.24670000
H        2.27360000      -0.28190000      -0.02400000
H        1.61710000      -0.10840000       1.62660000
H        0.00300000      -0.69810000      -0.88410000
H       -0.94590000      -0.02470000       1.94120000
H       -3.05260000       0.10020000       0.77080000
H       -2.42900000      -0.87460000      -0.59180000
H       -1.94110000      -3.45670000       2.05300000
H       -1.72930000      -3.35660000       0.26610000
