20
Properties=species:S:1:pos:R:3 gdb_99906=T pbc="F F F"
C       -0.38250000       1.37830000      -0.14160000
N       -0.25500000      -0.05590000      -0.41310000
C        0.70560000      -0.44630000      -1.45010000
C        0.44270000       0.32090000      -2.76160000
C        2.10080000      -0.17940000      -1.00730000
N        3.16670000       0.03970000      -0.61520000
C        0.57830000      -1.95150000      -1.73850000
C        0.11840000      -2.93870000      -0.73550000
N       -0.75120000      -2.55280000      -1.86480000
H        0.57880000       1.88400000       0.03720000
H       -0.89080000       1.87970000      -0.96860000
H       -1.00440000       1.50080000       0.74860000
H        0.00760000      -0.51910000       0.45010000
H        0.63890000       1.38910000      -2.65470000
H        1.09170000      -0.06390000      -3.55130000
H       -0.59850000       0.17280000      -3.05940000
H        1.29020000      -2.28490000      -2.49030000
H        0.50560000      -3.95260000      -0.77370000
H       -0.15830000      -2.60490000       0.26000000
H       -1.42790000      -1.87470000      -1.51410000
