18
Properties=species:S:1:pos:R:3 gdb_22688=T pbc="F F F"
C       -0.37630000       1.43870000       0.03000000
C        0.01740000      -0.01950000       0.04600000
N        0.29440000      -0.67470000       1.12160000
O        0.17790000       0.14980000       2.24630000
C        0.09310000      -0.72910000      -1.18300000
C        0.13950000      -1.27690000      -2.25960000
C        0.20100000      -1.94560000      -3.52240000
C        1.24690000      -3.02680000      -3.76410000
C       -0.19350000      -3.41340000      -3.62950000
H        0.41520000       2.04630000       0.47960000
H       -0.56290000       1.78060000      -0.98780000
H       -1.27430000       1.59180000       0.63660000
H        0.40710000      -0.45280000       2.96160000
H       -0.04510000      -1.32780000      -4.38100000
H        1.70500000      -3.05640000      -4.74630000
H        1.91520000      -3.25300000      -2.94220000
H       -0.50750000      -3.90320000      -2.71580000
H       -0.73830000      -3.71210000      -4.51790000
