16
Properties=species:S:1:pos:R:3 gdb_48484=T pbc="F F F"
O       -0.38710000       0.82310000       0.98790000
C        0.41270000       0.85920000       0.09650000
C        1.42980000       2.01100000      -0.11310000
C        1.56360000       2.92400000       1.12720000
C        2.81280000       2.35490000       1.82020000
C        3.63760000       1.86740000       0.63050000
O        2.67990000       1.34270000      -0.30000000
C        1.05920000       2.74740000      -1.33290000
N        0.73670000       3.30570000      -2.29240000
H        0.53930000       0.04040000      -0.63900000
H        1.71850000       3.95970000       0.81860000
H        0.65840000       2.86570000       1.73280000
H        3.33540000       3.09910000       2.42450000
H        2.54410000       1.51300000       2.46520000
H        4.19560000       2.69140000       0.16420000
H        4.33500000       1.06030000       0.86620000
