18
Properties=species:S:1:pos:R:3 gdb_13320=T pbc="F F F"
N       -0.31420000      -1.07870000       0.10500000
C       -0.12870000       0.05270000       0.24580000
C        0.10200000       1.48730000       0.45360000
N        1.37840000       1.91300000      -0.11890000
C        2.54420000       1.37840000       0.60550000
C        2.79860000       2.32810000       1.80750000
C        2.15110000       3.67180000       1.37360000
C        1.56270000       3.37010000      -0.03290000
H       -0.70400000       2.03240000      -0.04960000
H       -0.00920000       1.68620000       1.53580000
H        2.38000000       0.33670000       0.88950000
H        3.39930000       1.39950000      -0.07930000
H        2.32880000       1.94410000       2.71750000
H        3.86600000       2.42520000       2.01960000
H        1.36610000       3.97300000       2.07290000
H        2.87230000       4.49180000       1.33490000
H        2.27910000       3.66140000      -0.80930000
H        0.62600000       3.89410000      -0.23990000
