11
Properties=species:S:1:pos:R:3 gdb_2608=T pbc="F F F"
C       -0.09610000      -1.23190000      -0.00360000
C       -0.03490000      -0.03340000       0.00230000
C        0.02540000       1.42950000       0.00950000
C        1.38820000       1.95650000      -0.00070000
C        2.51150000       2.40250000      -0.00900000
C        3.77650000       2.90430000      -0.01840000
C        4.89830000       3.35040000      -0.02670000
H       -0.14470000      -2.29270000      -0.00890000
H       -0.52220000       1.82260000      -0.85870000
H       -0.50550000       1.81320000       0.89220000
H        5.88530000       3.74160000      -0.03400000
