14
Properties=species:S:1:pos:R:3 gdb_44264=T pbc="F F F"
O       -0.16080000       0.04850000       0.17730000
C       -0.06970000       1.23370000       0.03580000
N       -1.00030000       2.24010000      -0.14110000
C       -0.02330000       3.33710000      -0.04250000
C        1.09260000       2.26930000       0.02070000
C        1.77070000       2.49110000       1.37720000
O        0.92000000       3.38200000       2.12350000
C       -0.01460000       3.98620000       1.34330000
O       -0.73130000       4.85560000       1.74390000
H       -1.99360000       2.24870000       0.04980000
H       -0.06210000       4.06620000      -0.85190000
H        1.78230000       2.18450000      -0.81710000
H        1.88110000       1.56810000       1.95120000
H        2.75180000       2.96430000       1.27210000
