16
Properties=species:S:1:pos:R:3 gdb_9047=T pbc="F F F"
C       -0.06280000       1.58010000       0.11260000
C        0.03670000       0.04460000       0.01500000
C        0.73680000      -0.45590000      -1.27100000
C       -0.05410000      -0.10880000      -2.54820000
C        0.58050000      -0.65290000      -3.74660000
N        1.09390000      -1.08710000      -4.68600000
C        0.74160000      -0.48850000       1.18630000
N        1.30680000      -0.90240000       2.10530000
H        0.92960000       2.03630000       0.05600000
H       -0.67730000       1.98020000      -0.69750000
H       -0.52050000       1.87660000       1.05900000
H       -0.97820000      -0.37500000       0.04080000
H        1.74100000      -0.02470000      -1.33100000
H        0.86150000      -1.54060000      -1.21320000
H       -1.07400000      -0.50710000      -2.48460000
H       -0.14450000       0.97500000      -2.67370000
