16
Properties=species:S:1:pos:R:3 gdb_30298=T pbc="F F F"
O       -0.21030000       1.46870000      -0.15050000
C        0.02790000       0.06220000      -0.02470000
C       -1.34640000      -0.68720000      -0.05720000
N       -1.52130000      -1.35340000      -1.39830000
C       -0.24360000      -1.22640000      -1.95280000
C        0.68140000      -0.54770000      -1.22500000
N        1.91060000      -0.56090000      -1.84240000
C        1.71220000      -1.25570000      -2.93970000
N        0.40220000      -1.70060000      -3.06010000
H        0.61280000       1.86930000      -0.45030000
H        0.54380000      -0.13830000       0.92400000
H       -1.35950000      -1.46860000       0.70760000
H       -2.16300000       0.01030000       0.13720000
H       -2.24340000      -0.89800000      -1.94880000
H        2.45140000      -1.47940000      -3.69400000
H        0.03100000      -2.27650000      -3.79660000
