17
Properties=species:S:1:pos:R:3 gdb_50628=T pbc="F F F"
O       -0.45290000       1.10050000       1.13640000
C        0.13330000       1.06190000       0.08920000
C        1.45110000       1.78930000      -0.17420000
O        2.37200000       0.79460000      -0.51840000
C        3.73800000       1.12620000      -0.34140000
C        4.22830000       2.39270000      -0.98780000
C        3.55410000       3.46330000      -1.40460000
C        2.08000000       3.75910000      -1.36660000
O        1.20000000       2.65560000      -1.24310000
H       -0.23270000       0.48960000      -0.78880000
H        1.75990000       2.33640000       0.73160000
H        3.97460000       1.17410000       0.73710000
H        4.29430000       0.27150000      -0.74120000
H        5.31440000       2.42530000      -1.06270000
H        4.13410000       4.29960000      -1.79250000
H        1.89270000       4.48010000      -0.55020000
H        1.78260000       4.25990000      -2.29430000
