15
Properties=species:S:1:pos:R:3 gdb_127256=T pbc="F F F"
C        0.01240000       1.47320000       0.00130000
N       -0.03510000       0.01760000       0.00290000
C       -1.23490000      -0.64870000       0.02240000
C       -1.22870000      -2.01030000       0.03090000
N       -2.30260000      -2.84000000       0.09620000
C        0.07950000      -2.68000000      -0.00590000
O        0.15180000      -3.90130000      -0.03080000
N        1.21990000      -1.87210000      -0.02120000
N        1.15080000      -0.58990000      -0.01480000
H        1.06250000       1.76020000      -0.01630000
H       -0.49570000       1.87070000      -0.88260000
H       -0.46620000       1.87170000       0.90110000
H       -2.12650000      -0.03340000       0.03500000
H       -3.21750000      -2.51950000      -0.17190000
H       -2.06470000      -3.80670000      -0.08540000
