21
Properties=species:S:1:pos:R:3 gdb_99177=T pbc="F F F"
C        0.01730000       1.40820000      -0.19360000
O       -0.09800000      -0.00640000       0.00100000
C       -1.35530000      -0.49560000      -0.04850000
O       -2.32710000       0.19000000      -0.24810000
C       -1.36250000      -1.99290000       0.18790000
C       -2.72890000      -2.61970000      -0.03470000
C       -3.28650000      -2.73770000      -1.48100000
C       -3.85200000      -4.13410000      -1.10490000
C       -2.87250000      -4.16140000       0.10020000
H        1.08190000       1.63220000      -0.12450000
H       -0.37130000       1.69650000      -1.17370000
H       -0.53840000       1.95130000       0.57530000
H       -0.60450000      -2.44710000      -0.46180000
H       -1.01180000      -2.16650000       1.21430000
H       -3.46500000      -2.11390000       0.59720000
H       -3.98260000      -1.96710000      -1.81590000
H       -2.47610000      -2.81800000      -2.21420000
H       -4.89390000      -4.07390000      -0.77720000
H       -3.76840000      -4.93400000      -1.84400000
H       -1.93790000      -4.67300000      -0.15480000
H       -3.23450000      -4.55880000       1.05200000
