15
Properties=species:S:1:pos:R:3 gdb_24368=T pbc="F F F"
C        0.00070000       1.52810000       0.18110000
N        1.33470000       1.96110000      -0.26420000
C        2.33610000       1.13710000      -0.68240000
N        2.29420000      -0.15190000      -0.76140000
C        1.07640000      -0.64040000      -0.36160000
C       -0.02600000       0.03270000       0.08160000
C       -1.01450000      -0.95960000       0.36270000
C       -0.43090000      -2.15430000       0.06690000
O        0.84690000      -1.97670000      -0.37700000
H       -0.18110000       1.87890000       1.21020000
H       -0.77330000       1.99960000      -0.44630000
H        1.52490000       2.94910000      -0.26020000
H        3.24810000       1.65620000      -0.97060000
H       -2.01850000      -0.81590000       0.73210000
H       -0.76980000      -3.17530000       0.11360000
