18
Properties=species:S:1:pos:R:3 gdb_10657=T pbc="F F F"
C        0.15810000       1.24410000       0.54770000
C       -0.46820000       0.05280000      -0.19000000
C        0.39510000      -0.42620000      -1.33450000
O        1.71440000      -0.93170000      -1.03450000
C        0.77240000      -1.84560000      -1.57990000
C        0.32070000      -3.00120000      -0.72500000
C        0.40570000       0.43130000      -2.56890000
O       -0.40170000       1.29130000      -2.81240000
H        1.14020000       0.97660000       0.94820000
H        0.28140000       2.10010000      -0.12180000
H       -0.47780000       1.55800000       1.38020000
H       -0.65250000      -0.76380000       0.51200000
H       -1.43490000       0.34500000      -0.61340000
H        0.98650000      -2.11780000      -2.61720000
H        0.18090000      -2.70650000       0.31590000
H       -0.61780000      -3.41560000      -1.10770000
H        1.07420000      -3.79510000      -0.75350000
H        1.24860000       0.19430000      -3.25650000
