16
Properties=species:S:1:pos:R:3 gdb_41075=T pbc="F F F"
C        0.13760000       1.46930000       0.23760000
O        1.48900000       1.34960000      -0.30640000
C        1.10940000       0.14860000      -1.05380000
C        1.50710000      -1.24170000      -0.57120000
C        0.80960000      -1.01770000       0.78970000
C       -0.19990000      -2.13830000       0.46190000
C       -0.88650000      -1.22170000      -0.47470000
N        0.27330000      -2.11320000      -0.95730000
C       -0.06490000      -0.00410000      -0.07720000
H        0.13890000       1.77980000       1.28700000
H       -0.46720000       2.16390000      -0.36110000
H        1.00230000       0.35060000      -2.12350000
H        2.44000000      -1.76910000      -0.76740000
H        1.25940000      -0.74430000       1.73950000
H       -0.51980000      -3.04310000       0.96560000
H       -1.81740000      -1.31910000      -1.01820000
