20
Properties=species:S:1:pos:R:3 gdb_93638=T pbc="F F F"
C        0.63330000       1.63730000      -0.03480000
C        0.22200000       0.16090000       0.00190000
C        0.92860000      -0.66760000      -1.10640000
O        1.60300000      -1.76360000      -0.47250000
C        1.85520000      -1.39920000       0.86610000
C        3.10390000      -0.60730000       0.98500000
N        4.07520000       0.01380000       1.07030000
C        0.59650000      -0.61270000       1.30340000
C        0.72520000       0.19640000       2.59130000
H        1.71130000       1.76310000       0.10480000
H        0.37250000       2.07500000      -1.00410000
H        0.11970000       2.21900000       0.73610000
H       -0.86260000       0.10570000      -0.13190000
H        0.23880000      -1.10150000      -1.83470000
H        1.65720000      -0.04880000      -1.64740000
H        1.99150000      -2.31960000       1.44210000
H       -0.16460000      -1.38610000       1.45320000
H        1.51270000       0.95120000       2.52580000
H       -0.21540000       0.70510000       2.82260000
H        0.96090000      -0.45810000       3.43690000
