18
Properties=species:S:1:pos:R:3 gdb_51287=T pbc="F F F"
O        1.93770000       4.15230000       0.16430000
C        1.06270000       3.32260000       0.06930000
N        1.22840000       1.96960000      -0.07680000
C        2.42170000       1.24330000      -0.15470000
C        2.49480000      -0.09080000      -0.28310000
C        3.92790000      -0.57240000      -0.30160000
C        4.74160000       0.72300000      -0.29030000
C        4.55680000       1.68990000      -1.42880000
C        3.77010000       1.88390000      -0.14720000
H       -0.01520000       3.57860000       0.09410000
H        0.37770000       1.42670000      -0.10780000
H        1.64430000      -0.75580000      -0.38530000
H        4.15540000      -1.19070000       0.57810000
H        4.14920000      -1.19460000      -1.17900000
H        5.68740000       0.73710000       0.23770000
H        5.36390000       2.38890000      -1.62040000
H        4.01640000       1.36540000      -2.31240000
H        3.95290000       2.75510000       0.46340000
