19
Properties=species:S:1:pos:R:3 gdb_55478=T pbc="F F F"
O       -0.25060000      -0.11940000       0.04390000
C       -0.05630000       1.21260000       0.02710000
O        1.02970000       1.71060000      -0.09350000
C       -1.35340000       2.02180000       0.10210000
C       -1.79270000       2.36070000      -1.34690000
N       -3.11780000       2.95820000      -1.44150000
C       -4.11580000       2.14030000      -0.75380000
C       -3.73820000       1.83720000       0.69770000
N       -2.40250000       1.22230000       0.75200000
H       -1.21380000      -0.24450000       0.16600000
H       -2.15130000       1.07550000       1.72530000
H       -1.13110000       2.96040000       0.63180000
H       -1.04990000       3.02640000      -1.79290000
H       -1.79970000       1.43210000      -1.93200000
H       -3.10470000       3.89240000      -1.04110000
H       -5.08440000       2.64800000      -0.79030000
H       -4.21600000       1.19690000      -1.30540000
H       -3.77590000       2.77590000       1.27880000
H       -4.45540000       1.14230000       1.14780000
