15
Properties=species:S:1:pos:R:3 gdb_49795=T pbc="F F F"
N        0.06320000       1.29680000      -0.31310000
C        0.06330000       0.07120000      -0.02040000
O        1.20980000      -0.64070000       0.17150000
C        1.26020000      -1.71600000       1.12070000
C        0.00380000      -2.52000000       1.09940000
C       -1.09230000      -1.99120000       0.56920000
N       -1.13280000      -0.68980000       0.04090000
C       -2.36920000      -0.23280000      -0.45260000
O       -2.60360000       0.81380000      -0.98080000
H        1.02510000       1.63540000      -0.31210000
H        2.12950000      -2.31300000       0.82860000
H        1.46680000      -1.30250000       2.12010000
H       -0.00220000      -3.52010000       1.51220000
H       -2.03570000      -2.52040000       0.51270000
H       -3.13720000      -1.01380000      -0.28590000
