17
Properties=species:S:1:pos:R:3 gdb_41449=T pbc="F F F"
C        0.08760000       1.52690000       0.22630000
O        1.47690000       1.52850000      -0.29690000
C        1.16120000       0.27040000      -0.90770000
C        0.30720000       0.12610000      -2.18330000
C       -0.17730000      -0.98000000      -1.22660000
C        1.36210000      -1.28420000      -0.82000000
C        1.34090000      -1.65080000       0.65030000
O        0.37390000      -0.71390000       1.15060000
C       -0.02680000      -0.00430000      -0.00970000
H        0.05970000       1.81050000       1.27890000
H       -0.55630000       2.17250000      -0.37500000
H       -0.40290000       0.92730000      -2.39730000
H        0.82290000      -0.19890000      -3.08850000
H       -0.92280000      -1.75340000      -1.42050000
H        2.00660000      -1.83550000      -1.50670000
H        1.00800000      -2.68060000       0.82970000
H        2.30460000      -1.49730000       1.15020000
