19
Properties=species:S:1:pos:R:3 gdb_54846=T pbc="F F F"
C        0.05410000       1.40670000       0.26410000
C        0.19200000      -0.09930000       0.10510000
O        1.28340000      -0.63370000       0.10370000
C       -1.08980000      -0.84060000      -0.02500000
C       -1.24070000      -2.22920000      -0.66280000
C       -0.00740000      -3.09710000      -0.88960000
C        0.50690000      -3.40930000       0.53760000
O       -0.36540000      -2.74340000       1.47500000
C       -1.39640000      -2.11070000       0.80520000
H        1.03950000       1.85480000       0.39580000
H       -0.43250000       1.83970000      -0.61760000
H       -0.57960000       1.64320000       1.12640000
H       -1.96110000      -0.20480000      -0.15550000
H       -2.09200000      -2.35770000      -1.32090000
H       -0.31100000      -4.00780000      -1.41400000
H        0.76000000      -2.60060000      -1.48460000
H        0.48430000      -4.48290000       0.76050000
H        1.51650000      -3.02840000       0.68920000
H       -2.34400000      -2.14680000       1.33240000
