15
Properties=species:S:1:pos:R:3 gdb_127613=T pbc="F F F"
C       -0.01580000       1.43660000      -0.06160000
N       -0.00660000      -0.00520000       0.02910000
N       -0.03590000      -0.75780000      -1.10590000
C       -0.01920000      -2.04070000      -0.73100000
C        0.02150000      -2.09980000       0.66940000
C        0.02890000      -0.79690000       1.13120000
C        0.07040000      -0.86140000       2.56140000
C        0.08430000      -2.19880000       2.83230000
O        0.05540000      -2.98180000       1.70550000
H        0.88630000       1.86440000       0.38850000
H       -0.04710000       1.69380000      -1.11990000
H       -0.89500000       1.85610000       0.43910000
H       -0.03710000      -2.82090000      -1.47470000
H        0.08780000      -0.06790000       3.29060000
H        0.11360000      -2.74210000       3.76310000
