14
Properties=species:S:1:pos:R:3 gdb_15332=T pbc="F F F"
C        0.07690000       1.50680000      -0.09740000
C        0.01690000       0.05510000      -0.03570000
C       -0.04040000      -1.14650000       0.02290000
C       -0.05780000      -2.58300000       0.06100000
O       -0.35730000      -3.22830000       1.29950000
C       -1.30410000      -3.38430000       0.24290000
C       -2.61450000      -2.69160000       0.44090000
O       -3.63830000      -3.06170000      -0.07380000
H        0.86620000       1.83920000      -0.78000000
H       -0.87080000       1.92930000      -0.44790000
H        0.28860000       1.93160000       0.88970000
H        0.73150000      -3.07430000      -0.50830000
H       -1.35890000      -4.37020000      -0.21660000
H       -2.55980000      -1.80750000       1.10910000
