20
Properties=species:S:1:pos:R:3 gdb_6140=T pbc="F F F"
C       -0.14410000       1.51060000      -0.00170000
C       -0.01150000      -0.01480000       0.00450000
C       -1.36000000      -0.67880000      -0.25450000
C        1.17380000      -0.50470000      -0.88680000
C        2.07680000      -0.58470000       0.38600000
C        0.77620000      -0.53070000       1.25050000
C        2.96320000      -1.71930000       0.53710000
C        3.68130000      -2.67700000       0.65910000
H        0.81590000       2.00470000       0.18290000
H       -0.51960000       1.86640000      -0.96800000
H       -0.84340000       1.84520000       0.77310000
H       -1.76850000      -0.37800000      -1.22660000
H       -1.27240000      -1.77030000      -0.25140000
H       -2.09210000      -0.39910000       0.51240000
H        0.99190000      -1.49870000      -1.30270000
H        1.51150000       0.15850000      -1.68740000
H        2.64700000       0.34230000       0.50340000
H        0.80060000       0.11210000       2.13440000
H        0.46130000      -1.53340000       1.54980000
H        4.32070000      -3.51730000       0.76790000
