20
Properties=species:S:1:pos:R:3 gdb_76732=T pbc="F F F"
C        0.05970000       1.57430000      -0.03410000
C       -0.03920000       0.08680000       0.09500000
N        1.09550000      -0.77060000      -0.24940000
C        0.52500000      -0.90130000       1.09220000
C        1.39630000      -0.75350000       2.30140000
C       -0.73710000      -1.76690000       1.00770000
O       -1.45640000      -1.72020000       2.23120000
C       -1.33450000      -0.74320000      -0.04710000
O       -2.51340000      -0.13380000       0.40140000
H        1.01320000       1.93860000       0.35790000
H       -0.00910000       1.87850000      -1.08520000
H       -0.75900000       2.05710000       0.50750000
H        0.84600000      -1.53830000      -0.87400000
H        2.09510000       0.07650000       2.16840000
H        0.79040000      -0.57130000       3.19330000
H        1.98570000      -1.66220000       2.47250000
H       -0.58790000      -2.80720000       0.68550000
H       -2.18510000      -2.34730000       2.17460000
H       -1.52290000      -1.12590000      -1.05830000
H       -2.49140000      -0.20550000       1.36780000
