21
Properties=species:S:1:pos:R:3 gdb_83087=T pbc="F F F"
C       -0.21510000       1.57720000       0.05840000
C        0.04340000       0.08120000       0.01520000
C        0.80940000      -0.59400000      -1.17140000
C        2.06880000       0.20070000      -1.56130000
C        2.87250000       0.54050000      -0.32530000
C        2.41510000       0.16880000       0.87230000
C        1.11720000      -0.60200000       0.93440000
C        1.19520000      -1.71190000      -0.17010000
O        0.16400000      -2.67700000      -0.12230000
H        0.70450000       2.16210000      -0.02640000
H       -0.88390000       1.87580000      -0.75730000
H       -0.70200000       1.85920000       0.99910000
H       -0.89570000      -0.46070000       0.14620000
H        0.23040000      -0.90430000      -2.04470000
H        2.67810000      -0.38650000      -2.26260000
H        1.79530000       1.11740000      -2.10310000
H        3.79920000       1.09570000      -0.44100000
H        2.95270000       0.39570000       1.78790000
H        0.83150000      -0.89850000       1.94680000
H        2.17930000      -2.18170000      -0.30020000
H        0.31040000      -3.22780000       0.65350000
