22
Properties=species:S:1:pos:R:3 gdb_115399=T pbc="F F F"
C       -0.04880000       1.60290000      -0.08180000
C       -0.12940000       0.07260000      -0.10900000
C        0.79660000      -0.57590000      -1.13920000
C        2.29840000      -0.36030000      -0.88110000
O        2.97160000      -1.45220000      -1.52060000
C        2.09840000      -2.49370000      -1.73160000
C        0.73460000      -2.11020000      -1.20280000
N        2.39480000      -3.58490000      -2.28410000
C        3.75930000      -3.81560000      -2.73210000
H        0.95400000       1.95130000       0.18800000
H       -0.29530000       2.02940000      -1.06040000
H       -0.74830000       2.02060000       0.64830000
H        0.10830000      -0.32890000       0.88560000
H       -1.16110000      -0.23310000      -0.32120000
H        0.56210000      -0.17500000      -2.13420000
H        2.69530000       0.56780000      -1.29940000
H        2.52210000      -0.38110000       0.19540000
H        0.60550000      -2.53100000      -0.19660000
H       -0.06070000      -2.50970000      -1.83250000
H        4.25710000      -4.51180000      -2.04530000
H        3.73290000      -4.30300000      -3.71230000
H        4.37050000      -2.90850000      -2.80170000
