20
Properties=species:S:1:pos:R:3 gdb_113408=T pbc="F F F"
O        0.20900000       0.48490000       0.96150000
C       -0.16950000       0.18450000      -0.37790000
C       -1.49370000      -0.52900000      -0.33520000
C       -1.85580000      -1.54760000      -1.42360000
C       -1.55180000      -1.98000000      -0.03590000
C       -0.61380000      -2.99950000       0.61510000
C       -1.31470000      -2.55760000       1.92050000
N       -2.50550000      -2.65460000       0.93650000
C       -1.81970000      -3.95530000       0.46280000
H        1.01780000       1.00520000       0.93760000
H       -0.25370000       1.10330000      -0.97930000
H        0.58000000      -0.45910000      -0.86690000
H       -2.31880000       0.06880000       0.04370000
H       -2.88770000      -1.56960000      -1.75820000
H       -1.12430000      -1.74080000      -2.20340000
H        0.44830000      -3.18360000       0.42300000
H       -1.37770000      -3.28320000       2.73620000
H       -1.12190000      -1.54500000       2.27730000
H       -2.11450000      -4.25930000      -0.54430000
H       -1.91450000      -4.77610000       1.17910000
