17
Properties=species:S:1:pos:R:3 gdb_106091=T pbc="F F F"
C        0.14250000       1.43490000       0.21110000
N       -0.04150000       0.00460000      -0.03650000
C       -1.36760000      -0.42760000      -0.05950000
C       -2.33250000      -0.82420000       0.99680000
N       -3.42520000      -0.01730000       0.44480000
C       -2.72270000      -0.07240000      -0.86860000
C       -2.66960000      -1.56350000      -1.27280000
O       -2.92260000      -2.15630000      -2.28520000
C       -1.89450000      -1.89130000      -0.03260000
H        1.21240000       1.65710000       0.23880000
H       -0.33120000       2.08020000      -0.54460000
H       -0.28480000       1.68720000       1.18560000
H        0.46770000      -0.29890000      -0.85870000
H       -2.17650000      -0.97900000       2.05760000
H       -4.32550000      -0.50300000       0.42450000
H       -2.91730000       0.71570000      -1.59250000
H       -1.33880000      -2.78000000       0.23140000
