18
Properties=species:S:1:pos:R:3 gdb_52583=T pbc="F F F"
C       -0.05160000       1.49300000       0.08160000
C        0.00590000       0.03950000       0.03830000
C        0.04550000      -1.16240000       0.00920000
C        0.08600000      -2.62410000      -0.02830000
C       -1.27540000      -3.17820000       0.08070000
N       -2.35030000      -3.59100000       0.16810000
C        0.79100000      -3.18320000      -1.29710000
C        2.21080000      -2.64450000      -1.44810000
O        0.77810000      -4.58980000      -1.11890000
H        0.71910000       1.90110000       0.74420000
H        0.09820000       1.92600000      -0.91310000
H       -1.02470000       1.83420000       0.45040000
H        0.65760000      -3.00350000       0.83050000
H        0.18600000      -2.89180000      -2.16790000
H        2.67910000      -3.07650000      -2.33880000
H        2.21370000      -1.55720000      -1.55460000
H        2.81640000      -2.91900000      -0.57860000
H        1.07030000      -5.00410000      -1.93620000
