15
Properties=species:S:1:pos:R:3 gdb_130145=T pbc="F F F"
N       -0.84750000       1.01800000       0.86780000
C       -0.19820000      -0.02660000       0.24090000
N       -0.63540000      -0.57460000      -0.88660000
N        0.27130000      -1.58170000      -1.06200000
C        1.17690000      -1.58110000      -0.07430000
C        2.31370000      -2.55780000       0.03450000
C        2.37040000      -3.50230000      -1.07590000
C        2.39590000      -4.27040000      -1.99950000
N        0.91640000      -0.60490000       0.77980000
H       -0.23220000       1.57920000       1.43790000
H       -1.42070000       1.56950000       0.24610000
H        0.21270000      -2.19990000      -1.85420000
H        3.25330000      -1.99570000       0.10150000
H        2.22250000      -3.09880000       0.98470000
H        2.43860000      -4.95960000      -2.80670000
