18
Properties=species:S:1:pos:R:3 gdb_9731=T pbc="F F F"
N        0.11250000       1.57550000      -0.36810000
C       -0.04910000       0.18070000       0.04710000
C        0.47800000      -0.05440000       1.48230000
C       -0.24010000      -1.32930000       1.97120000
C       -1.55170000      -1.42590000       1.13430000
C       -1.54020000      -0.20490000       0.19100000
C        0.62060000      -0.75300000      -0.89060000
N        1.15520000      -1.44900000      -1.64470000
H        1.10060000       1.80730000      -0.42970000
H       -0.26510000       1.70540000      -1.30320000
H        1.56780000      -0.12700000       1.52610000
H        0.17560000       0.82290000       2.06300000
H        0.38430000      -2.21020000       1.80020000
H       -0.43430000      -1.28380000       3.04540000
H       -1.56660000      -2.35520000       0.55860000
H       -2.44620000      -1.42910000       1.76170000
H       -2.03300000       0.65880000       0.64850000
H       -2.02230000      -0.39610000      -0.77120000
