21
Properties=species:S:1:pos:R:3 gdb_57108=T pbc="F F F"
O       -0.24150000       1.39020000      -0.08030000
C        0.00770000      -0.01400000      -0.01960000
C        0.70280000      -0.48440000      -1.22190000
C        1.30500000      -0.84200000      -2.19950000
C        0.75340000      -0.42730000       1.26790000
C        2.14600000       0.20080000       1.45400000
C        2.43310000      -0.03130000       2.94410000
C        1.07540000       0.23280000       3.63770000
C       -0.01110000      -0.04000000       2.55780000
H        0.56570000       1.81560000      -0.38790000
H       -0.99060000      -0.46940000       0.00770000
H        1.82090000      -1.16470000      -3.07000000
H        0.87250000      -1.51770000       1.22580000
H        2.90110000      -0.22570000       0.78870000
H        2.09400000       1.27960000       1.25370000
H        2.73990000      -1.07320000       3.09680000
H        3.23830000       0.59950000       3.33150000
H        0.94450000      -0.39070000       4.52630000
H        1.01900000       1.27260000       3.97490000
H       -0.59960000       0.86160000       2.36800000
H       -0.71000000      -0.82590000       2.85840000
