16
Properties=species:S:1:pos:R:3 gdb_70130=T pbc="F F F"
C        0.06710000       1.50210000       0.00060000
C        0.05150000      -0.01070000      -0.01800000
C       -0.84520000      -0.74920000       0.96560000
C        0.64020000      -0.82580000       1.14810000
N        1.28970000      -2.06310000       0.88310000
C        1.21190000      -2.52880000      -0.28510000
O        0.63430000      -1.94900000      -1.38840000
C        0.23270000      -0.61740000      -1.35770000
O        0.07980000      -0.05220000      -2.40170000
H        0.99520000       1.89280000      -0.42640000
H       -0.76370000       1.90390000      -0.58560000
H       -0.02250000       1.87110000       1.02640000
H       -1.41230000      -0.12140000       1.64340000
H       -1.35610000      -1.64810000       0.63950000
H        1.07840000      -0.26320000       1.96540000
H        1.63580000      -3.49170000      -0.55350000
