21
Properties=species:S:1:pos:R:3 gdb_81330=T pbc="F F F"
C       -0.03340000       1.50850000       0.00310000
C        0.02980000      -0.02020000       0.07810000
C       -1.38530000      -0.57790000      -0.09800000
O        0.89530000      -0.53460000      -0.99180000
C        1.89520000      -1.26490000      -0.26790000
C        1.11140000      -2.04720000       0.80880000
C        0.80890000      -0.58700000       1.28880000
C        2.27940000      -0.26620000       0.86540000
O        3.20020000      -0.71560000       1.83450000
H        0.94100000       1.98050000       0.13550000
H       -0.42160000       1.81240000      -0.97370000
H       -0.70980000       1.89840000       0.77110000
H       -1.78310000      -0.26450000      -1.06810000
H       -1.41260000      -1.66730000      -0.06350000
H       -2.04980000      -0.19090000       0.68180000
H        2.60710000      -1.71030000      -0.96350000
H        0.29210000      -2.68530000       0.47910000
H        1.76410000      -2.57090000       1.50390000
H        0.43780000      -0.35480000       2.28650000
H        2.51050000       0.75220000       0.53790000
H        4.07900000      -0.68440000       1.44330000
