25
Properties=species:S:1:pos:R:3 gdb_101237=T pbc="F F F"
C        0.02570000       1.56650000       0.20150000
O        0.23320000       0.18950000       0.00360000
C        0.68430000      -0.52490000       1.15010000
C       -0.45150000      -0.76740000       2.15010000
C        1.29880000      -1.83210000       0.66100000
C        0.47270000      -2.74800000      -0.28800000
C        1.77790000      -3.04150000      -1.08070000
C        1.71440000      -3.13010000      -2.59760000
C        2.40780000      -1.78030000      -0.42430000
H        0.92960000       2.06270000       0.58960000
H       -0.22030000       1.99870000      -0.77220000
H       -0.80350000       1.77810000       0.89250000
H        1.47580000       0.06750000       1.64370000
H       -1.24490000      -1.36250000       1.68730000
H       -0.07890000      -1.30900000       3.02560000
H       -0.88920000       0.17030000       2.50390000
H        1.64240000      -2.39590000       1.53520000
H       -0.06120000      -3.59570000       0.14960000
H       -0.22620000      -2.15400000      -0.88380000
H        2.25620000      -3.94200000      -0.67720000
H        1.24000000      -2.23780000      -3.02150000
H        2.71600000      -3.21510000      -3.03500000
H        1.13530000      -4.00220000      -2.92290000
H        2.27830000      -0.89880000      -1.05870000
H        3.44930000      -1.83750000      -0.09600000
