16
Properties=species:S:1:pos:R:3 gdb_47372=T pbc="F F F"
O       -0.04780000      -0.07930000       0.13550000
C       -0.05030000       1.12320000       0.04790000
C       -1.31560000       1.96580000       0.06380000
C       -1.26770000       3.05160000      -1.02360000
O       -0.07200000       3.82420000      -0.93440000
C        1.10310000       3.06540000      -1.12010000
C        1.23390000       1.94040000      -0.06430000
C        1.18200000       2.51690000      -2.49510000
N        1.23480000       2.09370000      -3.56890000
H       -2.18570000       1.31620000      -0.05650000
H       -1.38060000       2.45510000       1.04450000
H       -1.34970000       2.59790000      -2.02110000
H       -2.08690000       3.76360000      -0.90560000
H        1.93160000       3.77130000      -1.00630000
H        1.40880000       2.42920000       0.90180000
H        2.07490000       1.27860000      -0.27950000
