18
Properties=species:S:1:pos:R:3 gdb_12220=T pbc="F F F"
C       -0.66960000       1.28180000      -0.09270000
C       -0.01680000      -0.09170000      -0.05270000
C        1.28050000      -0.35450000      -0.86270000
O        2.01200000       0.85390000      -0.98090000
C        1.77690000      -1.25590000       0.29920000
C        0.71580000      -0.60680000       1.24500000
C        1.28350000       0.48540000       2.11580000
O        0.98960000       0.64820000       3.27440000
H        0.05720000       2.07830000       0.07870000
H       -1.13240000       1.46000000      -1.06890000
H       -1.45240000       1.35800000       0.66910000
H       -0.74810000      -0.85830000      -0.32920000
H        1.15750000      -0.83080000      -1.84440000
H        2.89230000       0.64030000      -1.30660000
H        1.56850000      -2.31510000       0.13050000
H        2.82910000      -1.14190000       0.57650000
H        0.13610000      -1.28020000       1.87890000
H        2.01570000       1.15010000       1.60810000
