18
Properties=species:S:1:pos:R:3 gdb_94510=T pbc="F F F"
C       -0.76500000       1.21750000       0.38870000
C       -0.23200000      -0.19980000       0.20660000
C        0.73970000      -0.37170000      -0.99800000
C        1.94880000      -0.36940000      -0.02590000
C        0.97810000      -0.61170000       1.15220000
C        1.16790000       0.20030000       2.39780000
O        1.93000000       1.12740000       2.52440000
C        0.28520000      -0.18610000       3.52590000
N       -0.41370000      -0.50340000       4.39110000
H        0.04250000       1.95700000       0.40070000
H       -1.43590000       1.47010000      -0.43880000
H       -1.33170000       1.32260000       1.31980000
H       -1.05840000      -0.91340000       0.23980000
H        0.60960000      -1.33280000      -1.50170000
H        0.71080000       0.42090000      -1.74960000
H        2.71890000      -1.12720000      -0.17930000
H        2.42990000       0.60670000       0.05910000
H        0.88540000      -1.66650000       1.42750000
