13
Properties=species:S:1:pos:R:3 gdb_48147=T pbc="F F F"
N        0.18960000       1.47540000       0.00560000
C        0.07110000       0.20810000       0.00120000
N       -1.18090000      -0.42740000       0.00910000
C       -2.44490000       0.14550000       0.02570000
O       -2.70970000       1.31640000       0.03630000
C       -3.53960000      -0.94660000       0.02940000
O       -4.70410000      -0.67710000       0.04320000
C        1.16330000      -0.73180000      -0.01280000
C        2.08670000      -1.50260000      -0.02460000
H        1.17660000       1.72860000      -0.00190000
H       -1.14070000      -1.43550000       0.00280000
H       -3.17970000      -2.00400000       0.01840000
H        2.91270000      -2.17200000      -0.03510000
