22
Properties=species:S:1:pos:R:3 gdb_106773=T pbc="F F F"
C        0.20960000      -1.72060000       0.96970000
C       -0.12930000      -0.65060000      -0.07590000
C        0.63120000      -0.78850000      -1.36600000
C        2.07020000      -1.24560000      -1.50010000
C        0.98360000      -1.95460000      -2.27170000
O        0.71060000      -3.30620000      -2.13900000
C        0.54350000      -1.10090000      -3.46000000
N        0.36970000       0.07810000      -2.55210000
C       -0.93830000       0.70090000      -2.63850000
H        0.07930000      -2.72560000       0.55870000
H        1.24250000      -1.62820000       1.31880000
H       -0.44310000      -1.61910000       1.84160000
H       -1.20420000      -0.69020000      -0.28950000
H        0.06200000       0.34670000       0.34440000
H        2.79180000      -0.60450000      -2.00070000
H        2.45070000      -1.81750000      -0.65970000
H        1.50860000      -3.80050000      -2.35810000
H        1.25020000      -0.94270000      -4.28340000
H       -0.41460000      -1.45670000      -3.85990000
H       -1.78680000      -0.00450000      -2.55820000
H       -1.04780000       1.45730000      -1.85500000
H       -1.02070000       1.20960000      -3.60480000
