17
Properties=species:S:1:pos:R:3 gdb_133695=T pbc="F F F"
C       -0.11320000       1.42660000       0.77590000
C        0.09310000      -0.02270000       0.39460000
C        0.29140000      -0.42230000      -1.02880000
N        1.37080000      -0.56730000      -0.07250000
C        2.53760000       0.29110000      -0.22430000
C       -0.27880000      -1.69260000      -1.60140000
F       -1.45570000      -1.44580000      -2.20520000
F        0.53790000      -2.22120000      -2.52710000
F       -0.48750000      -2.62340000      -0.66550000
H        0.34780000       2.12010000       0.06910000
H       -1.18430000       1.64990000       0.80970000
H        0.29850000       1.62810000       1.77050000
H       -0.43860000      -0.72900000       1.02930000
H        0.35150000       0.37460000      -1.76990000
H        2.32260000       1.29430000      -0.62140000
H        3.02840000       0.40200000       0.74720000
H        3.23980000      -0.19850000      -0.90530000
