12
Properties=species:S:1:pos:R:3 gdb_53783=T pbc="F F F"
N       -0.04850000       1.25180000       0.15880000
C       -0.14780000      -0.08350000       0.32860000
O        0.53510000      -0.78390000       1.04730000
C       -1.30450000      -0.69540000      -0.48010000
O       -2.15060000      -0.03300000      -1.02680000
C       -1.28680000      -2.23040000      -0.59550000
O       -0.40800000      -2.74400000      -1.24760000
C       -2.38480000      -2.93230000       0.01630000
C       -3.30550000      -3.47390000       0.57170000
H        0.62850000       1.77600000       0.68770000
H       -0.72940000       1.72740000      -0.41120000
H       -4.11460000      -3.96810000       1.05350000
