20
Properties=species:S:1:pos:R:3 gdb_115689=T pbc="F F F"
C        0.05330000       1.62340000      -1.07400000
O       -0.34050000       0.26890000      -1.02380000
C        0.68760000      -0.62500000      -1.36010000
C        1.65810000      -0.99520000      -0.20340000
N        0.88690000      -2.24080000       0.01590000
C        0.20300000      -2.10560000      -1.28910000
C       -1.31110000      -2.32620000      -1.33250000
C       -2.06550000      -2.23760000      -0.02800000
O       -1.84440000      -2.54240000      -2.39700000
H        0.84720000       1.85060000      -0.34740000
H        0.41140000       1.89940000      -2.07760000
H       -0.82650000       2.22370000      -0.83270000
H        1.15780000      -0.32890000      -2.30620000
H        2.68950000      -1.14210000      -0.55040000
H        1.66430000      -0.31550000       0.65570000
H        1.44030000      -3.08230000       0.12820000
H        0.63700000      -2.68940000      -2.11080000
H       -1.92220000      -1.23860000       0.39500000
H       -3.12450000      -2.43280000      -0.20080000
H       -1.65360000      -2.94310000       0.69980000
