16
Properties=species:S:1:pos:R:3 gdb_28096=T pbc="F F F"
O        0.14310000       1.38320000      -0.23510000
C        0.07970000       0.03030000      -0.07680000
C        0.07700000      -0.86520000      -1.12250000
N       -0.02140000      -2.13470000      -0.57880000
C        0.07550000      -3.35470000      -1.33650000
C        1.51420000      -3.70630000      -1.72300000
O        1.79010000      -4.52100000      -2.56080000
C       -0.05880000      -2.04040000       0.78530000
C       -0.00530000      -0.70820000       1.13520000
H        0.13360000       1.79250000       0.63450000
H        0.11670000      -0.70650000      -2.18690000
H       -0.32430000      -4.18190000      -0.73870000
H       -0.52850000      -3.29760000      -2.24800000
H        2.28830000      -3.14870000      -1.14960000
H       -0.12840000      -2.92620000       1.39690000
H       -0.04060000      -0.30960000       2.13820000
