19
Properties=species:S:1:pos:R:3 gdb_103645=T pbc="F F F"
O       -0.15220000       1.44220000      -0.18990000
C        0.00380000       0.02350000      -0.12850000
C       -1.40550000      -0.53380000      -0.02880000
O       -2.05760000       0.00300000       1.10750000
C       -2.30290000      -0.48620000      -1.30790000
C       -2.78830000      -1.92430000      -0.97020000
O       -2.87080000      -2.87920000      -1.99450000
C       -1.58090000      -2.07070000       0.01370000
O       -0.48290000      -2.71430000      -0.61890000
H        0.70940000       1.85100000      -0.07200000
H        0.51570000      -0.36720000      -1.01570000
H        0.57380000      -0.27420000       0.76300000
H       -1.88530000       0.95320000       1.07300000
H       -3.05070000       0.30720000      -1.34510000
H       -1.71110000      -0.47130000      -2.22810000
H       -3.74670000      -1.92900000      -0.44770000
H       -1.98640000      -2.93350000      -2.37790000
H       -1.77370000      -2.47810000       1.01230000
H       -0.66200000      -3.66050000      -0.60570000
