13
Properties=species:S:1:pos:R:3 gdb_977=T pbc="F F F"
N        0.20020000       1.42950000       0.00560000
C        0.01980000       0.02920000      -0.01880000
C       -1.09510000      -0.78360000      -0.02970000
O       -2.37370000      -0.29180000      -0.01630000
C       -0.66290000      -2.13690000      -0.05550000
C        0.71800000      -2.11490000      -0.05970000
N        1.11680000      -0.81180000      -0.03760000
H       -0.22570000       1.84280000       0.82980000
H       -0.23660000       1.87220000      -0.79730000
H       -2.98220000      -1.03550000      -0.03020000
H       -1.28640000      -3.01870000      -0.06920000
H        1.43170000      -2.92220000      -0.07660000
H        2.06190000      -0.47000000      -0.03490000
