21
Properties=species:S:1:pos:R:3 gdb_95878=T pbc="F F F"
C       -0.04700000       1.56770000       0.00930000
C        0.02380000       0.04060000      -0.05470000
C        0.80640000      -0.45730000      -1.28030000
C        0.89560000      -1.98270000      -1.28370000
O        1.47570000      -2.48490000      -0.07820000
C        0.82460000      -2.08490000       1.10100000
C        0.66580000      -0.55190000       1.21070000
C       -0.50920000      -2.78570000       1.33860000
O       -1.06610000      -3.52170000       0.56770000
H        0.95630000       2.00390000       0.08150000
H       -0.52380000       1.97790000      -0.88710000
H       -0.62030000       1.90550000       0.87940000
H       -1.00250000      -0.34860000      -0.13190000
H        0.32930000      -0.11890000      -2.20780000
H        1.81880000      -0.03180000      -1.26130000
H       -0.09610000      -2.42650000      -1.43300000
H        1.55020000      -2.33810000      -2.08430000
H        1.46910000      -2.42270000       1.92700000
H        1.66310000      -0.11770000       1.34960000
H        0.08060000      -0.29960000       2.10360000
H       -0.94650000      -2.55810000       2.34180000
