18
Properties=species:S:1:pos:R:3 gdb_66778=T pbc="F F F"
C       -0.04300000       1.43470000       0.02490000
C        0.04840000      -0.06590000       0.01710000
C        1.31530000      -0.81280000      -0.32260000
C        0.74520000      -0.85490000       1.09870000
C        0.15600000      -2.25940000       0.84170000
C       -1.26130000      -2.07030000       0.23800000
C       -0.70510000      -2.02920000      -1.14900000
C        0.74050000      -2.21620000      -0.61570000
N       -1.14490000      -0.79500000      -0.48310000
H        0.88000000       1.88020000       0.40840000
H       -0.21320000       1.81980000      -0.98560000
H       -0.87180000       1.77110000       0.65600000
H        2.21690000      -0.35230000      -0.70970000
H        1.12050000      -0.43330000       2.02410000
H        0.37160000      -3.08710000       1.51220000
H       -2.22370000      -2.38480000       0.62700000
H       -1.12600000      -2.30360000      -2.11020000
H        1.37620000      -3.01280000      -0.99300000
