17
Properties=species:S:1:pos:R:3 gdb_98953=T pbc="F F F"
C        0.44630000       1.44030000      -0.25150000
C       -0.17110000       0.29330000       0.54390000
C        0.87480000      -0.53650000       1.28200000
O        2.06420000      -0.29950000       1.23340000
N        0.32600000      -1.58080000       2.00760000
C        0.93210000      -2.55450000       2.80600000
N        0.18120000      -3.41260000       3.37010000
C        2.45150000      -2.58010000       2.99010000
O        2.93910000      -3.43470000       3.68620000
H        1.15020000       1.06330000      -0.99710000
H       -0.33300000       2.00980000      -0.76470000
H        0.99750000       2.11770000       0.40480000
H       -0.89230000       0.67070000       1.28090000
H       -0.74030000      -0.37770000      -0.11290000
H       -0.67980000      -1.68820000       1.97890000
H        0.77630000      -4.04590000       3.91110000
H        3.03730000      -1.80900000       2.47330000
