13
Properties=species:S:1:pos:R:3 gdb_132067=T pbc="F F F"
N       -0.00610000       1.40740000       0.14940000
C       -0.04660000       0.03220000       0.05300000
C       -1.17920000      -0.72240000       0.02810000
F       -2.37140000      -0.11210000       0.03280000
C       -1.13910000      -2.14230000      -0.00430000
C        0.07010000      -2.73450000      -0.01720000
O        1.22090000      -2.02590000      -0.01100000
C        1.24530000      -0.64390000       0.01020000
O        2.30950000      -0.07340000      -0.01540000
H        0.88670000       1.79370000      -0.12490000
H       -0.81200000       1.90000000      -0.20300000
H       -2.05230000      -2.72050000      -0.01470000
H        0.25000000      -3.80010000      -0.03560000
