13
Properties=species:S:1:pos:R:3 gdb_64557=T pbc="F F F"
O        0.01600000       1.40180000       0.00780000
C        0.03420000       0.02760000      -0.02420000
C        1.03280000      -0.48950000      -1.03640000
O        1.69630000       0.27750000      -1.69180000
C       -0.03590000      -0.70660000       1.36800000
O       -1.45340000      -0.27710000       1.47800000
C       -1.36390000      -0.69180000       0.05460000
C       -0.65530000      -1.93460000       0.65260000
O       -0.71670000      -3.11740000       0.70130000
H        0.67670000       1.68360000      -0.64630000
H        1.12710000      -1.58660000      -1.14650000
H        0.60350000      -0.59110000       2.23950000
H       -2.24140000      -0.55980000      -0.57340000
