16
Properties=species:S:1:pos:R:3 gdb_47978=T pbc="F F F"
O       -0.22490000       0.14440000       0.49860000
C        0.05790000       1.06540000      -0.23560000
C        1.25830000       1.84790000      -0.13990000
C        2.25670000       2.53080000      -0.10010000
C        3.44470000       3.29750000       0.00950000
C        4.59790000       3.05740000       1.00790000
C        4.78980000       4.60380000       1.13020000
C        3.64800000       4.80670000       0.12700000
N        3.88970000       4.12120000      -1.12340000
H       -0.61610000       1.37540000      -1.06030000
H        4.25880000       2.60470000       1.94070000
H        5.43340000       2.47190000       0.61220000
H        4.55550000       4.97100000       2.13130000
H        5.75550000       5.01630000       0.82150000
H        2.89610000       5.58700000       0.14030000
H        4.88100000       3.98450000      -1.31830000
