17
Properties=species:S:1:pos:R:3 gdb_14371=T pbc="F F F"
C        0.05280000       1.60240000       0.13180000
N        1.54280000       1.24660000       0.11140000
C        1.13350000       0.03630000       0.99440000
C        0.04980000       0.07020000      -0.11540000
O       -0.97120000      -0.68970000      -0.67520000
C       -0.81640000      -0.49770000      -2.11290000
C        0.40670000       0.46920000      -2.38810000
C        1.17590000       0.27210000      -1.08300000
H       -0.28800000       1.96800000       1.10300000
H       -0.25380000       2.27670000      -0.66790000
H        1.85770000      -0.78110000       0.98210000
H        0.85990000       0.33270000       2.00920000
H       -0.64940000      -1.48160000      -2.56440000
H       -1.74980000      -0.08890000      -2.51110000
H        0.96300000       0.15540000      -3.27350000
H        0.05950000       1.48900000      -2.55820000
H        1.92330000      -0.52160000      -1.15660000
