25
Properties=species:S:1:pos:R:3 gdb_93670=T pbc="F F F"
C       -0.47420000       1.40200000       0.08380000
C        0.04310000      -0.03580000       0.10180000
C        0.76860000      -0.47940000      -1.18180000
C        1.57330000      -1.73600000      -0.77340000
C        1.67050000      -1.72690000       0.79200000
C        0.78670000      -2.83950000       1.38870000
C        3.11260000      -1.92480000       1.27810000
C        1.08990000      -0.34320000       1.19380000
O        2.14990000       0.61200000       1.17810000
H        0.33740000       2.11330000      -0.10580000
H       -1.21510000       1.54200000      -0.70980000
H       -0.95510000       1.67260000       1.03140000
H       -0.81150000      -0.70310000       0.27560000
H        0.07990000      -0.66310000      -2.01170000
H        1.44990000       0.31820000      -1.49630000
H        1.07630000      -2.65030000      -1.11400000
H        2.56740000      -1.73460000      -1.22900000
H        1.13330000      -3.82180000       1.05040000
H        0.82480000      -2.83140000       2.48370000
H       -0.26170000      -2.74220000       1.08830000
H        3.77520000      -1.15840000       0.87330000
H        3.17570000      -1.87860000       2.37090000
H        3.48320000      -2.90690000       0.96320000
H        0.63920000      -0.38030000       2.19750000
H        1.78810000       1.45910000       1.45400000
