13
Properties=species:S:1:pos:R:3 gdb_129706=T pbc="F F F"
N        0.01970000       1.39740000       0.09070000
C       -0.03630000       0.02130000      -0.00490000
C       -1.16240000      -0.72850000       0.09130000
O       -2.38640000      -0.20070000       0.22420000
C       -1.06950000      -2.17170000       0.04360000
N       -2.14930000      -2.84770000       0.13250000
O        0.16960000      -2.70240000      -0.09520000
N        1.35860000      -1.83160000      -0.21630000
N        1.18320000      -0.61710000      -0.16280000
H        0.82620000       1.80980000      -0.35570000
H       -0.84830000       1.86910000      -0.11760000
H       -2.98330000      -0.97590000       0.25790000
H       -1.99340000      -3.85180000       0.08690000
