18
Properties=species:S:1:pos:R:3 gdb_51779=T pbc="F F F"
O        0.21300000      -0.41390000       0.33220000
C        0.01620000       0.77800000       0.24890000
N        0.96940000       1.71340000      -0.03890000
C        2.34670000       1.37660000      -0.28670000
C        3.07390000       1.97130000      -1.51700000
C        4.35770000       2.07420000      -0.65240000
C        3.48980000       1.94010000       0.64230000
C        3.16230000       3.27580000       1.24910000
O        3.15010000       3.51610000       2.42870000
H       -0.97910000       1.24030000       0.39700000
H        0.67870000       2.67720000      -0.09040000
H        2.39320000       0.28700000      -0.28180000
H        3.10430000       1.36140000      -2.42220000
H        2.68260000       2.95980000      -1.77920000
H        5.01730000       1.21300000      -0.77350000
H        4.95270000       2.98500000      -0.74970000
H        3.83830000       1.27100000       1.43040000
H        2.92360000       4.07820000       0.50720000
