20
Properties=species:S:1:pos:R:3 gdb_11564=T pbc="F F F"
C       -0.41420000       1.49270000       0.04680000
C        0.06590000       0.04320000      -0.01840000
C        0.86170000      -0.36850000       1.22230000
O        0.06860000      -0.31440000       2.39280000
O       -1.01400000      -0.89680000      -0.06580000
C       -1.73240000      -0.93980000      -1.25940000
C       -3.02330000      -1.69130000      -1.22730000
C       -3.03180000      -0.18440000      -1.39390000
H        0.44640000       2.16960000       0.04820000
H       -1.04140000       1.74350000      -0.81130000
H       -0.98180000       1.65710000       0.96610000
H        0.70240000      -0.09880000      -0.90740000
H        1.26830000      -1.37860000       1.06140000
H        1.70210000       0.31710000       1.37230000
H       -0.71970000      -0.83390000       2.19470000
H       -1.10530000      -1.03480000      -2.14660000
H       -3.28040000      -2.31820000      -2.07340000
H       -3.32810000      -2.08240000      -0.26310000
H       -3.34810000       0.40100000      -0.53860000
H       -3.29510000       0.23650000      -2.35850000
