13
Properties=species:S:1:pos:R:3 gdb_3671=T pbc="F F F"
C        0.03730000       1.49070000      -0.00530000
C       -0.08380000       0.00820000      -0.04410000
C       -1.10650000      -0.84810000       0.21440000
C       -0.53330000      -2.13660000      -0.01110000
N       -1.14100000      -3.36590000       0.18740000
N        0.72540000      -2.05480000      -0.38460000
O        1.01440000      -0.68000000      -0.39450000
H        0.80990000       1.80050000       0.70600000
H        0.31760000       1.88620000      -0.98710000
H       -0.91130000       1.94040000       0.29340000
H       -2.10780000      -0.60930000       0.53220000
H       -2.11210000      -3.39520000      -0.08880000
H       -0.61620000      -4.12860000      -0.22040000
