16
Properties=species:S:1:pos:R:3 gdb_28814=T pbc="F F F"
C       -0.35330000       1.41810000       0.15500000
C       -0.05060000      -0.05300000       0.00680000
C       -0.35710000      -0.71350000      -1.14480000
N        0.06090000      -1.95960000      -1.54640000
C        0.30070000      -2.93510000      -0.75670000
C        0.04620000      -2.92050000       0.71370000
N       -0.67090000      -3.83230000       1.23530000
N        0.74200000      -1.93300000       1.40970000
C        0.67860000      -0.68730000       1.08900000
H       -0.95550000       1.61220000       1.04980000
H        0.56720000       2.00570000       0.25580000
H       -0.89960000       1.79890000      -0.71110000
H       -0.88170000      -0.16800000      -1.92670000
H        0.71230000      -3.85210000      -1.17980000
H       -0.73050000      -3.68900000       2.24780000
H        1.24240000      -0.00970000       1.73690000
