19
Properties=species:S:1:pos:R:3 gdb_83323=T pbc="F F F"
C       -0.23190000       1.51360000      -0.01850000
C        0.06000000       0.02290000       0.06460000
C        1.22400000      -0.64060000      -0.75830000
C        2.47390000       0.13330000      -0.27110000
C        2.18450000       0.19080000       1.26780000
C        0.84940000      -0.57450000       1.31210000
O        0.29800000      -0.76510000       2.56370000
C        1.11770000      -1.72040000       0.32950000
O        1.00500000      -2.91200000       0.38850000
H        0.66280000       2.13190000       0.08430000
H       -0.69910000       1.76310000      -0.97680000
H       -0.92720000       1.80200000       0.77670000
H       -0.86520000      -0.54560000      -0.07900000
H        1.12780000      -0.87440000      -1.81550000
H        3.39830000      -0.40150000      -0.50250000
H        2.54230000       1.12500000      -0.72400000
H        2.94550000      -0.31440000       1.86730000
H        2.07920000       1.20910000       1.64930000
H       -0.16030000      -1.61440000       2.55820000
