15
Properties=species:S:1:pos:R:3 gdb_132516=T pbc="F F F"
C        0.01310000       1.48080000       0.07150000
C        0.01590000      -0.02210000      -0.01370000
C       -0.12910000      -0.69680000      -1.22010000
C       -0.11690000      -2.09490000      -1.22270000
C        0.03870000      -2.75800000      -0.02720000
F        0.05830000      -4.09020000       0.03380000
C        0.17920000      -2.00480000       1.14820000
O        0.33160000      -2.65390000       2.31900000
N        0.16740000      -0.68510000       1.14830000
H        0.95100000       1.84270000       0.50530000
H       -0.11420000       1.93790000      -0.91240000
H       -0.79500000       1.82710000       0.72410000
H       -0.25000000      -0.14810000      -2.14640000
H       -0.22630000      -2.66700000      -2.13710000
H        0.40970000      -1.96290000       2.99190000
