16
Properties=species:S:1:pos:R:3 gdb_127719=T pbc="F F F"
C       -0.03530000       1.43730000       0.02400000
N       -0.06750000      -0.00980000       0.07930000
N       -0.22050000      -0.73440000      -1.03680000
N       -0.21420000      -1.99640000      -0.70100000
C       -0.05630000      -2.10840000       0.64330000
C       -0.00720000      -3.42150000       1.34760000
C        0.04120000      -0.82700000       1.17030000
C        0.21110000      -0.35580000       2.48400000
C        0.35670000       0.04970000       3.60920000
H        0.91700000       1.81370000       0.40620000
H       -0.15290000       1.72020000      -1.02160000
H       -0.84940000       1.86100000       0.61770000
H        0.12530000      -3.27830000       2.42240000
H       -0.93010000      -3.98680000       1.18390000
H        0.81990000      -4.03380000       0.97440000
H        0.48510000       0.39940000       4.60380000
