16
Properties=species:S:1:pos:R:3 gdb_12404=T pbc="F F F"
O       -0.02650000       1.41720000       0.09640000
C       -0.03600000       0.02040000      -0.01040000
C       -1.45390000      -0.54090000       0.05570000
C       -1.37240000      -2.05200000      -0.16450000
C       -0.74750000      -2.34380000      -1.52250000
O        0.49100000      -1.64020000      -1.77290000
C        0.70250000      -0.40630000      -1.28350000
O        1.52010000       0.31960000      -1.79150000
H        0.71450000       1.71330000      -0.45370000
H        0.54630000      -0.43910000       0.81240000
H       -1.90260000      -0.29280000       1.02150000
H       -2.06670000      -0.06530000      -0.71960000
H       -0.77490000      -2.51620000       0.62950000
H       -2.36320000      -2.51690000      -0.13390000
H       -0.49870000      -3.40090000      -1.63880000
H       -1.43980000      -2.06780000      -2.32770000
