13
Properties=species:S:1:pos:R:3 gdb_33489=T pbc="F F F"
N        0.08320000      -1.16850000      -0.06150000
C        0.03200000      -0.01510000      -0.03940000
C       -0.01640000       1.44330000       0.01240000
C       -0.25340000       2.09760000       1.44870000
C        1.12170000       2.75810000       1.32310000
O        2.07770000       1.70350000       1.14590000
C        1.38130000       2.16020000       0.00800000
C       -0.91830000       1.98980000      -0.99680000
N       -1.60620000       2.46890000      -1.79140000
H       -1.09310000       2.79230000       1.43020000
H       -0.36070000       1.38250000       2.26470000
H        1.47300000       3.68590000       1.75480000
H        1.93120000       2.47970000      -0.86810000
