16
Properties=species:S:1:pos:R:3 gdb_64944=T pbc="F F F"
C       -0.45090000       1.33540000      -0.57270000
C       -0.00170000      -0.02120000      -0.07200000
C        1.08840000      -0.75060000      -0.75450000
O        1.33200000      -0.06820000       0.47070000
C       -0.98800000      -0.78130000       0.66310000
C       -1.83180000      -1.38590000       1.27060000
C       -2.84120000      -2.13010000       2.01900000
C       -3.37340000      -3.28340000       1.27990000
N       -3.79990000      -4.19100000       0.70800000
H        0.36670000       1.82570000      -1.10640000
H       -1.30690000       1.23240000      -1.24620000
H       -0.75090000       1.97040000       0.26590000
H        1.12030000      -1.83710000      -0.70340000
H        1.53840000      -0.30540000      -1.64120000
H       -2.42120000      -2.49270000       2.96610000
H       -3.68150000      -1.47700000       2.28720000
