14
Properties=species:S:1:pos:R:3 gdb_128664=T pbc="F F F"
C       -0.00380000       1.37250000      -0.00580000
O        0.02600000      -0.05750000      -0.04570000
C        0.62300000      -0.61010000      -1.09130000
N        0.69530000      -1.92140000      -1.20420000
N        1.36870000      -2.05440000      -2.38940000
C        1.70460000      -3.28880000      -2.96760000
O        1.44670000      -4.35780000      -2.50100000
C        1.65070000      -0.82020000      -2.90000000
N        1.19760000       0.11860000      -2.11190000
H        1.00890000       1.78460000       0.01120000
H       -0.53860000       1.77700000      -0.86940000
H       -0.52900000       1.62490000       0.91530000
H        2.24360000      -3.12660000      -3.91930000
H        2.17850000      -0.67840000      -3.83190000
