19
Properties=species:S:1:pos:R:3 gdb_91372=T pbc="F F F"
C        0.05070000       1.53170000       0.19120000
C        0.12180000       0.01700000       0.04750000
C        0.90890000      -0.47580000      -1.22080000
N        1.50850000      -1.71500000      -0.70850000
C        2.94880000      -2.10380000      -0.66190000
C        2.76800000      -2.35440000       0.89240000
O        3.70920000      -1.87600000       1.79960000
C        1.50080000      -1.54420000       0.67680000
N        0.82650000      -0.61110000       1.20990000
H        1.05600000       1.95950000       0.26360000
H       -0.45400000       1.98210000      -0.67040000
H       -0.50010000       1.80530000       1.09480000
H       -0.89900000      -0.38820000       0.01250000
H        0.26260000      -0.64780000      -2.08470000
H        1.68850000       0.24920000      -1.50370000
H        3.21320000      -2.95210000      -1.29670000
H        3.62950000      -1.26160000      -0.84070000
H        2.59520000      -3.41140000       1.10810000
H        3.55970000      -0.92930000       1.90680000
