18
Properties=species:S:1:pos:R:3 gdb_127283=T pbc="F F F"
C       -0.06940000       1.36860000       0.12940000
N        0.07600000      -0.05750000      -0.02570000
C       -0.10850000      -0.79860000      -1.15790000
C        0.00680000      -2.11590000      -0.78510000
C        0.03940000      -3.55040000      -1.22350000
C       -0.04160000      -4.27980000       0.15970000
N        0.49770000      -3.31360000       1.15010000
C        0.26770000      -2.05450000       0.59470000
N        0.30630000      -0.82890000       1.08620000
H        0.76990000       1.76480000       0.70690000
H       -0.07530000       1.83450000      -0.85830000
H       -1.00040000       1.62260000       0.64950000
H       -0.30750000      -0.31770000      -2.10330000
H       -0.77870000      -3.85890000      -1.88040000
H        0.97820000      -3.79970000      -1.73480000
H       -1.09100000      -4.52630000       0.37870000
H        0.53520000      -5.20830000       0.17590000
H        0.17230000      -3.44750000       2.09800000
