17
Properties=species:S:1:pos:R:3 gdb_80579=T pbc="F F F"
C       -0.05540000       1.50620000      -0.37790000
C        0.08480000       0.07600000       0.09520000
O        1.15250000      -0.41600000       0.38390000
C       -1.21630000      -0.71490000       0.19840000
O       -1.04750000      -2.14430000       0.24880000
C       -1.87530000      -2.23010000       1.41950000
C       -1.21130000      -1.55150000       2.56350000
O        0.14810000      -1.54410000       2.80000000
C       -1.96220000      -0.70090000       1.54250000
H        0.88280000       2.04120000      -0.22950000
H       -0.31640000       1.51830000      -1.44280000
H       -0.86680000       2.01380000       0.15560000
H       -1.87910000      -0.44470000      -0.63520000
H       -2.62110000      -3.01720000       1.44140000
H       -1.76580000      -1.62880000       3.49580000
H        0.61300000      -1.57980000       1.94830000
H       -2.79150000      -0.04940000       1.78460000
