21
Properties=species:S:1:pos:R:3 gdb_113227=T pbc="F F F"
C       -0.03870000       1.04040000       0.51410000
O       -0.20860000       0.02360000      -0.45800000
C       -1.38480000      -0.69480000      -0.28180000
C       -1.47340000      -2.02570000      -0.95060000
C       -1.39620000      -1.96080000       0.57040000
C       -0.10950000      -2.39900000       1.23950000
C       -2.67080000      -2.22840000       1.30960000
C       -2.84680000      -3.30720000       2.29160000
O       -2.69310000      -1.94890000       2.71440000
H        0.89950000       1.55010000       0.28370000
H       -0.86050000       1.77090000       0.47530000
H        0.01120000       0.62850000       1.53090000
H       -2.28320000      -0.07440000      -0.25260000
H       -2.40690000      -2.30960000      -1.42550000
H       -0.58140000      -2.36850000      -1.46360000
H        0.74750000      -1.92740000       0.75440000
H       -0.11290000      -2.11210000       2.29550000
H        0.02460000      -3.48470000       1.18020000
H       -3.56870000      -1.88970000       0.78690000
H       -3.83530000      -3.73720000       2.44920000
H       -2.01370000      -3.96510000       2.53040000
