18
Properties=species:S:1:pos:R:3 gdb_61968=T pbc="F F F"
O       -0.10640000       1.34850000      -0.01980000
C       -0.05380000      -0.07540000      -0.02330000
C        0.63130000      -0.61350000      -1.28520000
C       -0.05800000      -0.10200000      -2.56510000
C        0.64020000      -0.51540000      -3.77880000
N        1.20870000      -0.85020000      -4.72750000
C        0.60420000      -0.61520000       1.25820000
C       -0.14110000      -0.20510000       2.51440000
O       -0.37950000      -0.95040000       3.42920000
H        0.79850000       1.68170000       0.01270000
H       -1.10800000      -0.38180000      -0.03770000
H        1.68460000      -0.30480000      -1.28810000
H        0.62560000      -1.70820000      -1.27090000
H       -1.08990000      -0.46940000      -2.61200000
H       -0.11620000       0.99060000      -2.53630000
H        0.68650000      -1.70580000       1.24270000
H        1.62570000      -0.20840000       1.32410000
H       -0.46100000       0.85850000       2.53330000
