19
Properties=species:S:1:pos:R:3 gdb_79293=T pbc="F F F"
C       -0.05340000       1.57860000      -0.00450000
C        0.00420000       0.05330000      -0.01480000
C        0.91050000      -0.54500000      -1.09220000
C        2.25860000      -0.66840000      -0.42520000
O        2.15040000      -0.19890000       0.91250000
C        0.78730000      -0.57170000       1.16480000
C        0.79460000      -2.08590000       0.80490000
O       -0.48150000      -2.69290000       0.73450000
C        1.40060000      -1.89960000      -0.57480000
H        0.94610000       2.00320000       0.12360000
H       -0.46990000       1.96160000      -0.94190000
H       -0.68640000       1.94360000       0.81170000
H       -0.99820000      -0.38060000      -0.05840000
H        0.79510000      -0.33400000      -2.14700000
H        3.22230000      -0.50530000      -0.88550000
H        0.50580000      -0.28840000       2.17840000
H        1.46750000      -2.64050000       1.47370000
H       -0.79850000      -2.82240000       1.63420000
H        1.65350000      -2.72830000      -1.22140000
