14
Properties=species:S:1:pos:R:3 gdb_124961=T pbc="F F F"
C        0.06320000       1.50670000       0.08800000
C       -0.04510000       0.02470000       0.08260000
C       -1.10100000      -0.84320000      -0.04690000
C       -2.51670000      -0.65540000      -0.22830000
O       -3.28870000      -1.60170000      -0.32130000
C       -0.47850000      -2.14040000       0.03980000
O       -1.11860000      -3.30000000      -0.03500000
N        0.81700000      -2.06510000       0.20440000
O        1.07910000      -0.66660000       0.22980000
H        0.71930000       1.84440000      -0.72040000
H       -0.91750000       1.96780000      -0.03970000
H        0.49590000       1.85450000       1.03130000
H       -2.89590000       0.38320000      -0.28250000
H       -2.06410000      -3.07620000      -0.15680000
