10
Properties=species:S:1:pos:R:3 gdb_20310=T pbc="F F F"
C        0.03040000      -1.17490000      -0.00430000
C       -0.01250000       0.02620000       0.00300000
C       -0.05480000       1.45050000       0.01160000
N       -1.24430000       2.06060000       0.03060000
C       -1.14660000       3.38270000       0.03660000
N       -0.00980000       4.08600000       0.02540000
N        1.12880000       3.40870000       0.00660000
N        1.13370000       2.09360000      -0.00070000
H        0.06800000      -2.23740000      -0.01080000
H       -2.06710000       3.96030000       0.05190000
