13
Properties=species:S:1:pos:R:3 gdb_129590=T pbc="F F F"
N        0.06170000       1.35100000       0.21430000
C       -0.03480000      -0.01100000       0.05570000
C       -1.16990000      -0.82710000       0.00500000
C       -2.50450000      -0.38390000       0.00680000
N       -3.58700000       0.03360000       0.00760000
C       -0.63480000      -2.14620000      -0.07720000
O       -1.37850000      -3.25760000      -0.15100000
N        0.67890000      -2.16690000      -0.08530000
N        1.02750000      -0.83430000      -0.00890000
H        0.81780000       1.80140000      -0.28180000
H       -0.81700000       1.83330000       0.08220000
H       -0.77330000      -4.00900000      -0.20330000
H        1.99780000      -0.59380000       0.09370000
