18
Properties=species:S:1:pos:R:3 gdb_98488=T pbc="F F F"
C        0.29750000       1.57840000      -0.04660000
C        0.74320000       0.11950000      -0.00280000
C        0.37470000      -0.58370000       1.28450000
O       -0.27780000      -0.05660000       2.16120000
C        0.85560000      -2.01180000       1.48040000
C        1.49430000      -2.25240000       2.83170000
N        0.16730000      -2.76370000       2.55710000
C        1.29340000      -2.76190000       0.33480000
C        1.67220000      -3.37390000      -0.62820000
H        0.75980000       2.15480000       0.75900000
H        0.57430000       2.03460000      -1.00080000
H       -0.78530000       1.65950000       0.07590000
H        0.30750000      -0.46210000      -0.82620000
H        1.82750000       0.01780000      -0.14410000
H        2.28240000      -2.99690000       2.88900000
H        1.60210000      -1.38400000       3.47560000
H       -0.51520000      -2.11290000       2.95150000
H        1.99840000      -3.92460000      -1.47570000
