15
Properties=species:S:1:pos:R:3 gdb_66702=T pbc="F F F"
O       -0.14350000       1.39560000      -0.10010000
C        0.02640000       0.03840000      -0.03320000
C        0.89690000      -0.84140000      -1.00190000
C       -0.15880000      -1.90550000      -0.95190000
C        1.16020000      -2.12380000      -0.22020000
C        0.95660000      -1.85420000       1.24470000
O        1.52920000      -2.34710000       2.18390000
C       -0.11440000      -0.80920000       1.23500000
C       -1.01670000      -1.02160000       0.00880000
H        0.60630000       1.82270000       0.33160000
H        1.50080000      -0.49710000      -1.83010000
H       -0.52590000      -2.55410000      -1.73480000
H        1.88150000      -2.85220000      -0.56460000
H       -0.51920000      -0.37370000       2.13780000
H       -2.09390000      -0.95220000       0.05570000
