17
Properties=species:S:1:pos:R:3 gdb_127843=T pbc="F F F"
C       -0.00630000       1.42920000      -0.00980000
N       -0.00530000      -0.01790000       0.08160000
C       -1.10250000      -0.67230000       0.05500000
C       -1.12020000      -2.12020000       0.14530000
C       -2.30110000      -2.75790000       0.11200000
N       -3.46690000      -2.03490000      -0.00620000
C       -4.77480000      -2.66260000      -0.04720000
N       -3.46600000      -0.67680000      -0.09140000
N       -2.38380000      -0.03440000      -0.06460000
H        0.60620000       1.72910000      -0.86970000
H       -0.99680000       1.88520000      -0.10340000
H        0.49140000       1.83950000       0.87820000
H       -0.18420000      -2.65450000       0.23720000
H       -2.41750000      -3.83370000       0.17270000
H       -4.96710000      -3.22570000       0.87240000
H       -5.51260000      -1.86670000      -0.14450000
H       -4.85620000      -3.34020000      -0.90380000
