17
Properties=species:S:1:pos:R:3 gdb_119370=T pbc="F F F"
O       -0.07330000       1.41340000      -0.09840000
C        0.01340000       0.00200000       0.01040000
C       -1.41640000      -0.53610000      -0.00460000
C       -1.46400000      -2.02410000       0.11040000
C       -2.65430000      -3.01730000       0.03960000
C       -1.38080000      -3.88760000      -0.04980000
O       -0.78910000      -2.85970000      -0.94540000
C       -0.76570000      -3.02600000       1.08180000
O       -0.05010000      -3.07120000       2.02790000
H        0.82000000       1.76910000      -0.10340000
H        0.57670000      -0.43700000      -0.82590000
H        0.51070000      -0.30440000       0.94290000
H       -1.97320000      -0.10350000       0.83500000
H       -1.91810000      -0.21390000      -0.92400000
H       -3.30700000      -3.11970000       0.91060000
H       -3.19710000      -2.96140000      -0.90560000
H       -1.25940000      -4.93060000      -0.33120000
