21
Properties=species:S:1:pos:R:3 gdb_90322=T pbc="F F F"
C       -0.14790000       1.57320000      -0.25390000
C       -0.00470000       0.05860000      -0.07300000
C        0.94990000      -0.55340000      -1.16800000
C        2.29190000      -0.71870000      -0.46320000
C        2.09330000      -0.70960000       0.84840000
C        2.65590000      -0.35540000       2.20440000
C        1.28430000       0.39130000       2.46030000
O        1.34150000       1.77990000       2.22980000
C        0.67640000      -0.41440000       1.24340000
H        0.82600000       2.06720000      -0.23330000
H       -0.62680000       1.78640000      -1.21620000
H       -0.75480000       2.01760000       0.53890000
H       -1.00060000      -0.38960000      -0.15630000
H        0.56520000      -1.51240000      -1.54300000
H        1.02660000       0.10690000      -2.04050000
H        3.23800000      -0.76150000      -0.99080000
H        2.78260000      -1.21240000       2.87480000
H        3.55860000       0.26210000       2.23720000
H        0.81590000       0.17290000       3.42990000
H        1.89950000       2.16890000       2.91090000
H        0.15400000      -1.28570000       1.66010000
