17
Properties=species:S:1:pos:R:3 gdb_87657=T pbc="F F F"
O        0.01590000       1.27820000      -0.16640000
C       -0.01160000      -0.10840000      -0.00320000
C       -0.53450000      -0.70940000       1.28440000
C       -1.36140000      -0.74430000       0.03130000
C       -2.66510000      -0.00500000      -0.30350000
C       -2.81860000      -1.01540000      -1.45810000
O       -3.34210000      -0.98490000      -2.53400000
C       -1.75910000      -1.95920000      -0.84450000
O       -0.83450000      -2.59520000      -1.67550000
H        0.75770000       1.62630000       0.33920000
H        0.77180000      -0.65800000      -0.52570000
H       -0.08940000      -1.63300000       1.64260000
H       -0.84270000      -0.01350000       2.05870000
H       -3.44780000      -0.10380000       0.45600000
H       -2.57630000       1.04180000      -0.60080000
H       -2.23730000      -2.73190000      -0.22760000
H       -0.74460000      -2.07030000      -2.47920000
