20
Properties=species:S:1:pos:R:3 gdb_116582=T pbc="F F F"
C        0.12910000       1.53540000       0.05540000
C       -0.02760000       0.01530000      -0.06450000
N        0.69260000      -0.49430000      -1.21860000
C        1.78500000      -1.11690000      -1.06960000
C        2.65220000      -1.69710000      -2.18460000
N        3.80490000      -2.33140000      -1.53470000
C        3.65080000      -2.15890000      -0.27700000
C        4.59000000      -2.63920000       0.78000000
N        2.49760000      -1.46010000       0.08550000
H        1.17210000       1.80860000       0.24630000
H       -0.17850000       2.02010000      -0.87530000
H       -0.48430000       1.92750000       0.87300000
H        0.26380000      -0.46110000       0.88830000
H       -1.08940000      -0.22160000      -0.20510000
H        2.09120000      -2.42780000      -2.77750000
H        2.98100000      -0.91370000      -2.87650000
H        5.42640000      -3.15440000       0.30820000
H        4.97320000      -1.80140000       1.37350000
H        4.08630000      -3.32740000       1.46800000
H        2.23710000      -1.22390000       1.02620000
