19
Properties=species:S:1:pos:R:3 gdb_113333=T pbc="F F F"
C        0.17530000       0.99330000      -0.61180000
N       -0.08680000      -0.07620000       0.34630000
C       -1.41970000      -0.58690000       0.27260000
C       -1.85470000      -1.70040000      -0.65450000
C       -1.73250000      -1.95820000       0.85080000
C       -0.60850000      -2.84790000       1.41030000
O        0.50500000      -2.97480000       0.54240000
C       -2.95710000      -2.08580000       1.59680000
N       -3.93130000      -2.20550000       2.21030000
H        1.20970000       1.32930000      -0.50040000
H        0.01370000       0.70760000      -1.66530000
H       -0.47700000       1.84690000      -0.39600000
H        0.58130000      -0.83110000       0.23320000
H       -2.16800000       0.17700000       0.46890000
H       -2.85030000      -1.69060000      -1.08300000
H       -1.08840000      -2.15020000      -1.27660000
H       -0.22500000      -2.39790000       2.33070000
H       -1.02520000      -3.82980000       1.66680000
H        0.27960000      -3.60240000      -0.15130000
