20
Properties=species:S:1:pos:R:3 gdb_66588=T pbc="F F F"
C       -0.10420000       1.47150000      -0.07500000
C        0.05220000      -0.01080000       0.05530000
C        0.92220000      -0.84940000      -0.82990000
C        1.12690000      -2.17320000      -0.09460000
C        1.92510000      -2.07930000       1.21420000
C        1.02570000      -1.20240000       2.14570000
C       -0.20890000      -0.88670000       1.28650000
C       -0.37850000      -2.00530000       0.23140000
N       -0.57680000      -0.97850000      -0.91040000
H        0.65660000       2.00190000       0.50960000
H       -0.00300000       1.77860000      -1.12070000
H       -1.08950000       1.79590000       0.27670000
H        1.49920000      -0.43100000      -1.64790000
H        1.38150000      -3.00560000      -0.75200000
H        2.08740000      -3.07250000       1.64590000
H        2.91320000      -1.63770000       1.05120000
H        0.74490000      -1.75020000       3.05120000
H        1.53130000      -0.28840000       2.47320000
H       -1.11090000      -0.60480000       1.83280000
H       -1.06940000      -2.83910000       0.33930000
