16
Properties=species:S:1:pos:R:3 gdb_47014=T pbc="F F F"
N       -0.04710000       1.30090000      -0.12610000
C       -0.01190000       0.03720000      -0.01510000
O        1.18840000      -0.63730000       0.04600000
C        1.22160000      -1.98370000       0.56180000
C        0.19520000      -2.78560000      -0.22260000
O       -0.41150000      -3.95700000       0.38870000
C       -1.74960000      -3.40030000       0.20430000
C       -1.11850000      -2.07570000      -0.13000000
C       -1.24530000      -0.76750000       0.04990000
H        0.90280000       1.67870000      -0.12290000
H        2.25300000      -2.31660000       0.43030000
H        0.96650000      -1.99790000       1.62840000
H        0.55430000      -3.01250000      -1.23530000
H       -2.28070000      -3.90180000      -0.61560000
H       -2.35610000      -3.44800000       1.11510000
H       -2.16620000      -0.24560000       0.27720000
