26
Properties=species:S:1:pos:R:3 gdb_119975=T pbc="F F F"
C       -0.40480000       1.66480000      -0.12350000
C       -0.37680000       0.20450000      -0.58170000
C        1.04470000      -0.36910000      -0.67450000
C        1.04190000      -1.83850000      -1.05210000
C        1.13550000      -2.33470000      -2.46370000
C        1.24260000      -1.41780000      -3.66450000
N        2.22770000      -2.56540000      -1.51010000
C        3.51290000      -1.88950000      -1.65630000
C        4.49270000      -2.78610000      -2.41270000
H        0.04990000       1.77750000       0.86710000
H        0.15000000       2.30860000      -0.81530000
H       -1.42920000       2.04540000      -0.06460000
H       -0.96790000      -0.40900000       0.11080000
H       -0.86660000       0.11340000      -1.55940000
H        1.62930000       0.22770000      -1.38120000
H        1.54120000      -0.25550000       0.29960000
H        0.43390000      -2.43300000      -0.36680000
H        0.59360000      -3.25270000      -2.69450000
H        1.68960000      -0.44830000      -3.43820000
H        1.83910000      -1.88280000      -4.45760000
H        0.24400000      -1.23170000      -4.07470000
H        3.45610000      -0.91100000      -2.15690000
H        3.89520000      -1.69900000      -0.64600000
H        4.59200000      -3.75200000      -1.90980000
H        4.14490000      -2.97430000      -3.43370000
H        5.48020000      -2.31730000      -2.47350000
