18
Properties=species:S:1:pos:R:3 gdb_54038=T pbc="F F F"
N       -0.12970000       1.28990000       0.65980000
C        0.00830000      -0.02720000       0.23680000
O        1.09400000      -0.55480000       0.13600000
N       -1.19150000      -0.68000000      -0.10610000
C       -2.40930000      -0.00670000      -0.15720000
N       -3.52490000      -0.61780000      -0.15360000
C       -1.17950000      -2.12010000      -0.25000000
C       -1.74130000      -2.73230000      -1.50320000
C       -0.26010000      -2.76520000      -1.24960000
H        0.75300000       1.65290000       0.98970000
H       -0.91080000       1.52420000       1.25300000
H       -2.28760000       1.07600000      -0.23900000
H       -4.28460000       0.05480000      -0.24460000
H       -1.36250000      -2.64860000       0.68080000
H       -2.32630000      -3.63740000      -1.39080000
H       -2.11130000      -2.05410000      -2.26210000
H        0.37500000      -2.11010000      -1.83010000
H        0.20960000      -3.69680000      -0.95520000
