20
Properties=species:S:1:pos:R:3 gdb_103513=T pbc="F F F"
C       -0.13800000       1.59200000      -0.17480000
C        0.00330000       0.06950000      -0.09030000
C        0.68020000      -0.43160000       1.19140000
O        2.01060000       0.10270000       1.17940000
C       -0.03460000      -0.07350000       2.48740000
C       -0.25670000      -1.13880000       3.26280000
C        0.18360000      -2.39110000       2.58140000
N       -0.57470000      -2.63400000       1.31590000
C        0.73950000      -1.96620000       1.27130000
H        0.83180000       2.07830000      -0.04130000
H       -0.53750000       1.88720000      -1.14980000
H       -0.82100000       1.97950000       0.58840000
H       -0.97200000      -0.41900000      -0.16620000
H        0.60950000      -0.28520000      -0.93310000
H        2.38760000      -0.05270000       2.05230000
H       -0.31080000       0.94740000       2.72270000
H       -0.73710000      -1.12610000       4.23430000
H        0.55190000      -3.24570000       3.13820000
H       -0.44810000      -3.60760000       1.04030000
H        1.58180000      -2.46010000       0.79790000
