15
Properties=species:S:1:pos:R:3 gdb_21226=T pbc="F F F"
C        0.06380000       1.45330000       0.00140000
N       -0.08770000       0.00590000      -0.05360000
C        0.56240000      -0.68950000      -1.04060000
N        1.14070000      -0.12680000      -2.07270000
O        1.59710000      -1.18020000      -2.84560000
N        1.30720000      -2.37890000      -2.26790000
C        0.67210000      -2.11780000      -1.16090000
C        0.16780000      -3.17190000      -0.23510000
H        1.10500000       1.76920000       0.15290000
H       -0.28230000       1.88630000      -0.94030000
H       -0.55320000       1.84160000       0.81420000
H       -0.10120000      -0.45960000       0.84090000
H        0.64210000      -3.09710000       0.75070000
H       -0.91380000      -3.07830000      -0.08830000
H        0.38130000      -4.16150000      -0.64200000
