21
Properties=species:S:1:pos:R:3 gdb_111750=T pbc="F F F"
C       -0.03890000       1.54760000      -0.21630000
C        0.18720000       0.02910000      -0.18010000
C        0.67860000      -0.45130000       1.15720000
C        2.09540000      -0.25440000       1.70760000
O        2.09240000      -1.56260000       2.33940000
C        0.79550000      -1.82900000       1.81340000
C       -0.20530000      -0.82420000       2.31740000
O       -0.06550000      -0.17930000       3.53750000
C       -0.22110000      -1.04670000       4.64780000
H        0.88880000       2.09140000      -0.00830000
H       -0.39970000       1.86840000      -1.19830000
H       -0.77560000       1.85160000       0.53400000
H       -0.74830000      -0.48770000      -0.42710000
H        0.90810000      -0.25580000      -0.95780000
H        2.85780000      -0.21420000       0.92070000
H        2.24610000       0.55320000       2.42970000
H        0.57900000      -2.83760000       1.47580000
H       -1.23640000      -1.05060000       2.02970000
H       -1.22150000      -1.50430000       4.66750000
H        0.53570000      -1.84070000       4.63700000
H       -0.09500000      -0.43840000       5.54650000
