20
Properties=species:S:1:pos:R:3 gdb_89787=T pbc="F F F"
C       -0.33230000       1.56060000      -0.02240000
N       -0.18020000       0.12280000       0.02860000
C       -1.32020000      -0.69240000       0.50310000
C       -0.33270000      -1.54650000       1.29920000
C       -0.54890000      -2.35190000       2.53760000
C       -0.14870000      -3.03420000       1.24810000
C        0.73010000      -0.45570000       1.03260000
C        2.04990000      -0.95200000       0.48490000
O        2.96820000      -1.31830000       1.17430000
H        0.61700000       2.02550000      -0.30860000
H       -1.07600000       1.82620000      -0.78090000
H       -0.65300000       2.00080000       0.94050000
H       -2.01770000      -0.13490000       1.14970000
H       -1.89090000      -1.18080000      -0.29560000
H        0.19430000      -2.28230000       3.32530000
H       -1.56810000      -2.47420000       2.89130000
H       -0.89650000      -3.61660000       0.71940000
H        0.86040000      -3.42670000       1.17830000
H        0.91120000       0.17400000       1.91840000
H        2.08210000      -0.99950000      -0.62720000
