19
Properties=species:S:1:pos:R:3 gdb_81069=T pbc="F F F"
C       -0.50790000       1.39500000      -0.49950000
C       -0.04780000      -0.01180000      -0.15880000
C        1.35750000      -0.57250000      -0.51330000
C        2.01340000       0.29400000       0.58730000
C        0.72930000      -0.36620000       1.15130000
O        1.14370000      -1.63640000       0.49900000
C        0.21910000      -0.43130000       2.54740000
C        1.07980000      -0.15240000       3.70330000
O        0.15480000       0.82670000       3.22740000
H        0.25170000       2.15620000      -0.30730000
H       -0.78560000       1.45860000      -1.55730000
H       -1.39330000       1.65710000       0.08870000
H       -0.82440000      -0.75540000      -0.36000000
H        1.75950000      -0.87880000      -1.47910000
H        2.94480000      -0.11160000       0.98420000
H        2.04130000       1.37740000       0.46850000
H       -0.65180000      -1.07240000       2.68840000
H        0.83630000      -0.59630000       4.66710000
H        2.13080000       0.08070000       3.54470000
