18
Properties=species:S:1:pos:R:3 gdb_89932=T pbc="F F F"
C        0.29540000       1.62510000      -0.00220000
C        0.05680000       0.12900000       0.05940000
N        0.89000000      -0.68650000      -0.88480000
C        1.26960000      -1.64220000       0.19990000
C        2.61130000      -1.22100000       0.84220000
O        1.94400000      -0.23920000       1.67310000
C        0.64190000      -0.66860000       1.24880000
C        0.94950000      -3.02920000       0.01230000
C        0.68130000      -4.18880000      -0.16480000
H        1.34510000       1.84550000       0.20420000
H        0.04490000       2.01310000      -0.99450000
H       -0.32430000       2.14820000       0.73440000
H       -1.01470000      -0.09940000      -0.03310000
H        0.35550000      -1.12950000      -1.62350000
H        3.08720000      -1.99780000       1.45210000
H        3.32820000      -0.77170000       0.14910000
H       -0.00850000      -0.94450000       2.08110000
H        0.44590000      -5.21380000      -0.31340000
