17
Properties=species:S:1:pos:R:3 gdb_99562=T pbc="F F F"
C        0.15040000       1.40000000       0.17990000
O       -0.11640000       0.02210000      -0.02270000
C        0.55670000      -0.54700000      -1.11360000
C        2.01170000      -0.65150000      -0.85430000
N        3.14320000      -0.75340000      -0.64170000
C       -0.04150000      -1.97460000      -1.34110000
N        0.03060000      -2.84490000      -0.17300000
C       -1.42300000      -1.83680000      -1.80520000
C       -2.54890000      -1.70500000      -2.20060000
H        1.21110000       1.57770000       0.40220000
H       -0.13460000       1.99340000      -0.70030000
H       -0.45280000       1.71220000       1.03400000
H        0.41650000       0.05290000      -2.02620000
H        0.55120000      -2.43740000      -2.14030000
H        1.00350000      -2.99380000       0.08120000
H       -0.41910000      -2.38160000       0.61130000
H       -3.54820000      -1.60460000      -2.54640000
