19
Properties=species:S:1:pos:R:3 gdb_61460=T pbc="F F F"
C       -0.12050000       1.43520000       0.25220000
C        0.02160000      -0.06580000       0.01170000
O        0.78330000      -0.66380000       1.08140000
C        2.12990000      -0.63980000       0.96030000
C        2.77810000      -1.30060000       2.15290000
O        2.71410000      -0.15710000       0.02340000
C       -1.32460000      -0.75430000      -0.04800000
C       -1.61810000      -2.04040000       0.59080000
O       -2.08520000      -0.81060000       1.15610000
H        0.86230000       1.91060000       0.26030000
H       -0.71570000       1.89020000      -0.54570000
H       -0.62360000       1.61370000       1.20600000
H        0.55530000      -0.24370000      -0.92750000
H        2.47610000      -2.35060000       2.20870000
H        3.86120000      -1.23210000       2.06110000
H        2.44610000      -0.81840000       3.07630000
H       -1.90330000      -0.47290000      -0.93020000
H       -2.38920000      -2.68440000       0.17040000
H       -0.83870000      -2.54040000       1.15900000
