20
Properties=species:S:1:pos:R:3 gdb_59606=T pbc="F F F"
C       -0.09030000       1.53930000       0.08060000
C        0.03970000       0.01610000      -0.06900000
C        0.61120000      -0.35110000      -1.44580000
C        0.85670000      -0.56150000       1.09180000
C        0.90620000      -2.10200000       1.20890000
N        2.26580000      -2.28040000       1.67830000
C        3.05720000      -1.19670000       1.35990000
O        4.25250000      -1.11450000       1.40500000
O        2.23890000      -0.16880000       0.97970000
H        0.89400000       2.01530000       0.03390000
H       -0.70790000       1.95730000      -0.71990000
H       -0.55020000       1.80940000       1.03700000
H       -0.96350000      -0.42540000       0.02520000
H        1.62100000       0.05150000      -1.56300000
H        0.65840000      -1.43260000      -1.60640000
H       -0.01660000       0.06910000      -2.23710000
H        0.47980000      -0.14460000       2.03510000
H        0.16810000      -2.47050000       1.92720000
H        0.72640000      -2.59610000       0.24490000
H        2.71330000      -3.18200000       1.70380000
