19
Properties=species:S:1:pos:R:3 gdb_41402=T pbc="F F F"
C       -0.07720000       1.39720000       0.25130000
C        1.45270000       1.58970000       0.01950000
C        1.60530000       0.06090000       0.00480000
C        2.61170000      -0.87170000      -0.66780000
O        2.59350000      -1.75950000       0.47440000
C        1.86250000      -0.79670000       1.26630000
C        0.49570000      -1.27420000       1.74850000
O       -0.40260000      -1.12710000       0.64980000
C        0.08010000      -0.09670000      -0.18370000
H       -0.35860000       1.48270000       1.30370000
H       -0.75510000       2.01310000      -0.34230000
H        1.66870000       2.03050000      -0.95830000
H        2.01650000       2.14030000       0.77670000
H        2.28770000      -1.37200000      -1.58840000
H        3.60790000      -0.43500000      -0.82360000
H        2.48330000      -0.37840000       2.06780000
H        0.50150000      -2.32610000       2.04760000
H        0.17290000      -0.66560000       2.60770000
H       -0.27420000      -0.29370000      -1.19900000
