18
Properties=species:S:1:pos:R:3 gdb_31003=T pbc="F F F"
C       -0.23440000       1.47930000       0.06320000
C       -0.03090000       0.00630000      -0.06220000
C        0.16120000      -0.81710000      -1.14830000
C        0.22420000      -0.42050000      -2.58490000
O       -0.80200000      -1.10650000      -3.30660000
C        0.30500000      -2.16380000      -0.66620000
C        0.19420000      -2.10260000       0.69630000
O        0.23770000      -3.03210000       1.68640000
N       -0.00240000      -0.80200000       1.06580000
H        0.59620000       1.97620000       0.58230000
H       -0.32140000       1.93720000      -0.92430000
H       -1.15210000       1.71930000       0.61560000
H        0.11190000       0.67030000      -2.68190000
H        1.21130000      -0.67750000      -3.00430000
H       -0.65740000      -0.93940000      -4.24350000
H        0.44400000      -3.04970000      -1.26600000
H        0.35450000      -3.89560000       1.27940000
H       -0.11440000      -0.49730000       2.01720000
