18
Properties=species:S:1:pos:R:3 gdb_102867=T pbc="F F F"
O        0.05240000       1.44700000      -0.06540000
C        0.08060000       0.03940000       0.00630000
C       -1.33160000      -0.55580000       0.04780000
C       -2.13680000      -0.06000000       1.25350000
C       -3.55550000      -0.58750000       1.28370000
O       -4.02370000      -1.20700000       2.20480000
O       -2.02500000      -0.12690000      -1.13940000
C       -1.99680000      -0.94160000      -2.21870000
N       -2.39440000      -0.51370000      -3.33500000
H       -0.46010000       1.67690000      -0.85010000
H        0.62330000      -0.40130000      -0.84540000
H        0.62210000      -0.22590000       0.92010000
H       -1.26570000      -1.65310000       0.05830000
H       -1.63610000      -0.35340000       2.18000000
H       -2.16340000       1.03560000       1.20520000
H       -4.15670000      -0.35850000       0.37840000
H       -1.62820000      -1.95170000      -1.99290000
H       -2.34770000      -1.25390000      -4.03210000
