20
Properties=species:S:1:pos:R:3 gdb_101088=T pbc="F F F"
C        0.06190000       1.43680000      -0.09240000
C       -0.00070000      -0.09370000      -0.11610000
C       -1.40920000      -0.64700000       0.15160000
O       -2.34640000      -0.19780000      -0.82640000
C       -1.44280000      -2.16940000       0.10930000
C       -2.69590000      -2.87630000      -0.31980000
N       -1.52680000      -2.86870000      -1.19430000
C       -0.62410000      -2.89990000       1.11750000
O       -0.11160000      -2.39690000       2.08800000
H        1.08960000       1.78550000      -0.22670000
H       -0.53040000       1.88760000      -0.89760000
H       -0.30010000       1.83620000       0.86200000
H        0.34560000      -0.46780000      -1.08740000
H        0.66900000      -0.49750000       0.64800000
H       -1.72650000      -0.33060000       1.15710000
H       -2.35540000       0.76300000      -0.81220000
H       -2.94260000      -3.84200000       0.11360000
H       -3.53650000      -2.23650000      -0.56290000
H       -1.66420000      -2.15180000      -1.90530000
H       -0.54140000      -3.98830000       0.90410000
