15
Properties=species:S:1:pos:R:3 gdb_51153=T pbc="F F F"
O        0.21170000      -0.24080000      -0.18330000
C        0.11110000       0.95420000      -0.25220000
C        1.27340000       1.91500000      -0.01930000
C        1.28130000       3.04150000      -1.00240000
O        1.74670000       2.79850000      -2.35360000
C        2.34530000       3.87050000      -1.63250000
C        1.42840000       5.08370000      -1.84120000
C        0.32280000       4.22840000      -1.14910000
O       -0.77350000       4.45630000      -0.73380000
H       -0.85940000       1.45000000      -0.47110000
H        1.14480000       2.33150000       0.99020000
H        2.21070000       1.35370000      -0.04510000
H        3.41250000       3.83550000      -1.45190000
H        1.66650000       5.96330000      -1.23550000
H        1.26620000       5.37370000      -2.88060000
