20
Properties=species:S:1:pos:R:3 gdb_64166=T pbc="F F F"
C       -0.51440000       1.47910000       0.24050000
C        0.02510000       0.07040000       0.03600000
C       -1.05020000      -0.84250000      -0.56140000
N        1.32370000       0.01680000      -0.70080000
C        1.84630000      -1.03300000       0.19600000
C        0.78870000      -0.59310000       1.26400000
N        1.22600000       0.38430000       2.25400000
C        0.09720000      -1.68090000       1.95080000
N       -0.43450000      -2.55920000       2.48200000
H        0.24820000       2.15600000       0.62660000
H       -0.86390000       1.87800000      -0.71830000
H       -1.35800000       1.47680000       0.93700000
H       -1.36320000      -0.44860000      -1.53480000
H       -0.68820000      -1.86440000      -0.70630000
H       -1.93440000      -0.89150000       0.08120000
H        1.24640000      -0.25000000      -1.67730000
H        1.70120000      -2.06450000      -0.14900000
H        2.89100000      -0.90150000       0.49800000
H        1.78220000      -0.07500000       2.96950000
H        1.82860000       1.06410000       1.79950000
