19
Properties=species:S:1:pos:R:3 gdb_55172=T pbc="F F F"
C        0.13640000       1.38800000      -0.03740000
C        0.02870000      -0.11280000       0.16830000
O        0.98460000      -0.81160000       0.40650000
C       -1.38360000      -0.67640000       0.08950000
O       -1.45180000      -2.10070000      -0.06030000
C       -2.24560000      -2.24640000       1.13500000
C       -1.39540000      -2.54040000       2.39370000
C       -1.35870000      -1.01170000       2.71150000
C       -2.18310000      -0.72040000       1.42680000
H        1.12460000       1.73460000       0.26710000
H       -0.01660000       1.62480000      -1.09710000
H       -0.63940000       1.92140000       0.52340000
H       -1.93650000      -0.16710000      -0.71390000
H       -3.15720000      -2.82230000       0.95740000
H       -1.90080000      -3.14430000       3.15160000
H       -0.43250000      -2.99150000       2.14970000
H       -1.91200000      -0.74920000       3.61610000
H       -0.36790000      -0.55700000       2.77080000
H       -3.04620000      -0.06050000       1.50060000
