15
Properties=species:S:1:pos:R:3 gdb_2523=T pbc="F F F"
C        0.04750000       1.52400000       0.00220000
C        0.03910000      -0.00410000      -0.06550000
N        0.68570000      -0.53680000      -1.26950000
C        2.08390000      -0.61300000      -1.26070000
N        2.79900000      -0.93630000      -2.25520000
C       -0.12290000      -0.90410000      -2.34420000
O        0.23290000      -1.32620000      -3.41000000
H        1.07000000       1.91410000      -0.00360000
H       -0.48150000       1.95430000      -0.85340000
H       -0.44230000       1.86690000       0.91890000
H        0.53730000      -0.42940000       0.81200000
H       -0.98890000      -0.37630000      -0.04740000
H        2.47250000      -0.35840000      -0.26610000
H        3.78040000      -0.93470000      -1.97940000
H       -1.19120000      -0.76190000      -2.07960000
