20
Properties=species:S:1:pos:R:3 gdb_126548=T pbc="F F F"
C       -0.01520000       1.58510000      -0.01360000
C       -0.04220000       0.05570000      -0.04910000
C        0.75440000      -0.52060000      -1.23680000
C        0.78600000      -2.01460000      -1.25870000
N        1.75040000      -2.76640000      -0.74420000
C        1.31120000      -4.03050000      -0.97480000
N        0.14750000      -4.11920000      -1.59500000
N       -0.18200000      -2.81300000      -1.77430000
C       -1.43830000      -2.47570000      -2.40890000
H        1.01020000       1.96010000       0.07520000
H       -0.44600000       2.01280000      -0.92600000
H       -0.58600000       1.97060000       0.83650000
H        0.37500000      -0.35070000       0.87890000
H       -1.08050000      -0.29590000      -0.09910000
H        0.34690000      -0.13010000      -2.17750000
H        1.79290000      -0.18220000      -1.17660000
H        1.86560000      -4.91110000      -0.68540000
H       -2.27510000      -2.60990000      -1.71640000
H       -1.41290000      -1.43700000      -2.74080000
H       -1.58620000      -3.12790000      -3.27120000
