17
Properties=species:S:1:pos:R:3 gdb_88804=T pbc="F F F"
C       -0.15620000       1.47380000      -0.17580000
C       -0.13100000       0.00680000       0.16430000
O        1.10580000      -0.69840000       0.00720000
C        0.56110000      -0.59000000       1.32240000
C        1.35500000       0.21830000       2.31520000
O        0.55780000       0.64380000       3.44960000
C        1.39640000      -0.00720000       4.42690000
C        2.27290000      -0.55110000       3.29170000
O        3.22120000      -1.26430000       3.19950000
H        0.71460000       2.00330000       0.21500000
H       -0.16950000       1.60410000      -1.26270000
H       -1.05980000       1.93970000       0.23070000
H       -0.99240000      -0.55480000      -0.20290000
H        0.15720000      -1.52040000       1.72500000
H        1.86210000       1.05620000       1.82190000
H        1.89860000       0.69800000       5.10150000
H        0.86100000      -0.75930000       5.01950000
