18
Properties=species:S:1:pos:R:3 gdb_51478=T pbc="F F F"
O       -0.08050000      -0.08030000       0.19870000
C       -0.02570000       1.12380000       0.05560000
N        1.11380000       1.84940000      -0.09390000
C        2.41270000       1.24460000      -0.09770000
C        3.52780000       1.73740000      -0.98610000
C        3.37780000       3.14060000      -1.54240000
O        2.94550000       3.94860000      -0.44260000
C        3.50920000       3.40800000       0.75710000
C        3.61400000       1.91290000       0.52340000
H       -0.92440000       1.77140000       0.03160000
H        1.06140000       2.85100000      -0.20730000
H        2.32610000       0.17320000       0.03180000
H        4.14350000       1.02650000      -1.52480000
H        4.33940000       3.49740000      -1.94160000
H        2.62010000       3.23770000      -2.32680000
H        4.50470000       3.83410000       0.95360000
H        2.84310000       3.69190000       1.57850000
H        4.29550000       1.33620000       1.13770000
