18
Properties=species:S:1:pos:R:3 gdb_131813=T pbc="F F F"
O        0.01210000       1.35310000      -0.46690000
C        0.02070000       0.03460000       0.05640000
C       -1.36850000      -0.55550000      -0.14830000
C       -1.46820000      -2.00450000       0.35590000
C       -2.83160000      -2.59520000       0.16310000
N       -3.55710000      -2.93120000       1.20470000
O       -4.75420000      -3.43160000       0.69470000
C       -4.70670000      -3.37890000      -0.64290000
C       -3.52450000      -2.86220000      -1.05740000
H        0.87650000       1.74470000      -0.31190000
H        0.77030000      -0.59330000      -0.45390000
H        0.27080000       0.03050000       1.12990000
H       -2.10060000       0.07110000       0.37250000
H       -1.61330000      -0.50530000      -1.21560000
H       -0.73100000      -2.62600000      -0.16900000
H       -1.22630000      -2.05260000       1.42230000
H       -5.58130000      -3.74370000      -1.15950000
H       -3.18910000      -2.69550000      -2.06740000
