19
Properties=species:S:1:pos:R:3 gdb_83573=T pbc="F F F"
O        0.19380000       1.33350000      -0.20480000
C        0.02120000      -0.04480000       0.01120000
C        0.49220000      -0.57880000       1.38090000
C       -0.08700000       0.28180000       2.51710000
C       -1.54130000       0.60290000       2.26370000
C       -2.16890000       0.22380000       1.14560000
C       -1.43680000      -0.56010000       0.07430000
C       -1.16420000      -2.00010000       0.53810000
O       -0.04870000      -1.90140000       1.43800000
H       -0.46630000       1.79060000       0.33130000
H        0.56740000      -0.55070000      -0.79100000
H        1.58000000      -0.65410000       1.46420000
H        0.02300000      -0.26810000       3.45950000
H        0.49590000       1.20670000       2.63150000
H       -2.07380000       1.16180000       3.02950000
H       -3.21800000       0.45890000       0.99140000
H       -1.95160000      -0.52100000      -0.88760000
H       -2.00970000      -2.45060000       1.06820000
H       -0.90110000      -2.64630000      -0.31180000
