25
Properties=species:S:1:pos:R:3 gdb_114060=T pbc="F F F"
C       -0.08760000       1.56850000       0.00720000
C        0.14570000       0.05670000      -0.08640000
C        0.70350000      -0.54220000       1.20280000
C       -0.20770000      -0.62840000       2.47660000
C        0.08900000      -2.13260000       2.57240000
C        0.31200000      -2.87990000       3.85620000
C       -0.38120000      -2.79220000       1.30280000
C        0.94000000      -2.06150000       1.29300000
C        2.23700000      -2.73570000       0.94270000
H        0.84550000       2.10000000       0.22640000
H       -0.48700000       1.97030000      -0.92930000
H       -0.79950000       1.81220000       0.80340000
H       -0.79550000      -0.44160000      -0.35020000
H        0.84210000      -0.15520000      -0.90890000
H        1.63250000      -0.01810000       1.46050000
H        0.18370000      -0.05120000       3.31850000
H       -1.26290000      -0.36360000       2.33790000
H       -0.62560000      -3.00560000       4.41230000
H        0.71730000      -3.88040000       3.67050000
H        1.01430000      -2.35150000       4.51200000
H       -0.29710000      -3.87540000       1.28740000
H       -1.24970000      -2.41600000       0.76560000
H        2.39510000      -2.76330000      -0.14280000
H        3.09240000      -2.21190000       1.38630000
H        2.25940000      -3.77100000       1.29950000
