19
Properties=species:S:1:pos:R:3 gdb_74795=T pbc="F F F"
C       -0.06130000       1.50330000       0.05400000
C       -0.07980000       0.01340000      -0.02290000
C       -0.09540000      -0.78190000      -1.09820000
C        0.03970000      -2.23380000      -0.65050000
C       -0.61370000      -2.17900000       0.74120000
C        0.06230000      -0.88360000       1.21460000
O        1.44970000      -1.18760000       1.46490000
C        2.12860000      -1.63030000       0.30300000
O        1.42430000      -2.59640000      -0.44720000
H        0.84970000       1.85250000       0.55560000
H       -0.10540000       1.96300000      -0.93710000
H       -0.90510000       1.88020000       0.64560000
H       -0.08860000      -0.46190000      -2.13370000
H       -0.35970000      -2.97840000      -1.33990000
H       -1.69920000      -2.06610000       0.67360000
H       -0.35750000      -3.03960000       1.36180000
H       -0.31700000      -0.45290000       2.14320000
H        2.37020000      -0.76750000      -0.33520000
H        3.05080000      -2.10650000       0.64380000
