20
Properties=species:S:1:pos:R:3 gdb_105986=T pbc="F F F"
C       -0.00290000       1.49550000       0.24950000
C       -0.04920000       0.00810000      -0.12640000
C       -1.42220000      -0.56640000      -0.03160000
C       -2.32220000      -0.94360000       1.12850000
C       -3.51810000      -0.45930000       0.27820000
C       -3.19780000      -1.44540000      -0.78510000
N       -2.61510000      -0.05800000      -0.85680000
C       -1.98080000      -1.96990000       0.02700000
C       -1.32660000      -3.30690000       0.13440000
H        1.00530000       1.90130000       0.12360000
H       -0.68530000       2.06990000      -0.38350000
H       -0.30440000       1.64650000       1.29100000
H        0.32050000      -0.12590000      -1.15190000
H        0.61980000      -0.57080000       0.52350000
H       -2.13040000      -1.00160000       2.19130000
H       -4.42880000       0.08060000       0.51010000
H       -3.79240000      -1.86300000      -1.59020000
H       -0.95250000      -3.65140000      -0.83710000
H       -0.47450000      -3.26730000       0.82180000
H       -2.02090000      -4.06590000       0.51380000
