15
Properties=species:S:1:pos:R:3 gdb_98934=T pbc="F F F"
C       -0.01890000       1.52220000      -0.10500000
O       -0.03060000       0.09140000      -0.06490000
C        0.62210000      -0.51980000      -1.04740000
N        1.22580000       0.10440000      -1.97540000
N        0.55980000      -1.91980000      -0.93110000
C       -0.05150000      -2.73230000       0.01240000
N       -0.71840000      -2.34020000       1.02260000
C        0.16140000      -4.14330000      -0.29050000
N        0.30720000      -5.27220000      -0.49530000
H        1.00500000       1.89970000      -0.05120000
H       -0.47920000       1.88440000      -1.02750000
H       -0.59480000       1.83560000       0.76550000
H        1.67260000      -0.51580000      -2.64500000
H        1.04640000      -2.40950000      -1.66420000
H       -1.05900000      -3.13910000       1.55370000
