20
Properties=species:S:1:pos:R:3 gdb_114995=T pbc="F F F"
C        0.02920000       1.38200000       0.07150000
O        0.00030000      -0.03630000       0.13120000
C       -1.25930000      -0.58920000       0.01990000
C       -1.14800000      -2.09830000      -0.08370000
C       -2.54400000      -2.73230000      -0.01010000
C       -2.47700000      -4.25500000       0.11470000
N       -3.33030000      -2.19460000       1.10430000
C       -3.00360000      -1.07200000       1.58170000
O       -2.02400000      -0.21880000       1.18970000
H        1.08060000       1.67520000       0.08140000
H       -0.43770000       1.74900000      -0.85420000
H       -0.48250000       1.83040000       0.92970000
H       -1.79720000      -0.16220000      -0.84420000
H       -0.63390000      -2.35840000      -1.01330000
H       -0.52970000      -2.44890000       0.75040000
H       -3.09180000      -2.49460000      -0.93450000
H       -1.95000000      -4.54110000       1.03070000
H       -3.48580000      -4.67260000       0.16200000
H       -1.95160000      -4.69560000      -0.73880000
H       -3.53710000      -0.65010000       2.43190000
