19
Properties=species:S:1:pos:R:3 gdb_23244=T pbc="F F F"
C       -0.08520000       1.56350000      -0.00270000
C        0.08100000       0.06300000      -0.09520000
C        0.62910000      -0.68060000      -1.26470000
N        1.34070000      -0.67200000       0.10310000
C        2.46540000       0.14150000      -0.52000000
C        3.79090000      -0.60060000      -0.42740000
C        1.76990000       0.04770000      -1.86850000
N        2.05160000       0.25860000      -3.08590000
O        3.28470000       0.93090000      -3.20760000
H        0.60150000       2.11330000      -0.64820000
H       -1.10290000       1.83280000      -0.30240000
H        0.05830000       1.90370000       1.02870000
H       -0.72340000      -0.48200000       0.39780000
H        0.15220000      -1.56380000      -1.67560000
H        2.55950000       1.14440000      -0.09250000
H        3.69550000      -1.61400000      -0.82670000
H        4.55860000      -0.07160000      -0.99650000
H        4.10250000      -0.67350000       0.61860000
H        3.38640000       0.99350000      -4.16320000
