16
Properties=species:S:1:pos:R:3 gdb_79492=T pbc="F F F"
O       -0.02370000       1.46630000      -0.08660000
C        0.04670000       0.06820000      -0.02680000
C        0.01650000      -0.61750000       1.35510000
C       -1.51210000      -0.31200000       1.55480000
C       -1.83530000      -1.78410000       1.87260000
C       -0.74820000      -1.86250000       0.78330000
C       -1.32960000      -0.61420000       0.01350000
C       -2.35940000      -0.63030000      -0.98890000
N       -3.18470000      -0.64830000      -1.79940000
H        0.87000000       1.82220000      -0.09210000
H        0.75550000      -0.34640000      -0.75700000
H        0.77290000      -0.63820000       2.13870000
H       -1.94310000       0.60120000       1.95910000
H       -1.55110000      -2.14060000       2.86670000
H       -2.83240000      -2.14200000       1.60160000
H       -0.30240000      -2.73280000       0.30180000
