23
Properties=species:S:1:pos:R:3 gdb_120641=T pbc="F F F"
C       -0.10430000       1.38250000       0.09010000
C       -0.31240000      -0.05940000      -0.33870000
O       -1.30150000      -0.63790000       0.50370000
C       -1.54460000      -1.97780000       0.22360000
C       -2.82110000      -2.56400000       0.75750000
C       -2.63030000      -2.38170000      -0.74140000
C       -3.43340000      -1.32860000      -1.47060000
O       -2.31070000      -3.53050000      -1.47890000
C       -3.40360000      -4.39440000      -1.72290000
H        0.66190000       1.85730000      -0.53000000
H       -1.03270000       1.95230000      -0.00950000
H        0.21500000       1.42950000       1.13510000
H       -0.63010000      -0.11440000      -1.39070000
H        0.62660000      -0.62970000      -0.25320000
H       -0.66150000      -2.61850000       0.22790000
H       -2.78030000      -3.56790000       1.16460000
H       -3.49750000      -1.88400000       1.26430000
H       -3.43300000      -0.39700000      -0.90030000
H       -2.99530000      -1.13490000      -2.45530000
H       -4.47430000      -1.63630000      -1.61600000
H       -3.00080000      -5.28470000      -2.21190000
H       -3.90170000      -4.69350000      -0.78940000
H       -4.15390000      -3.94050000      -2.38540000
