21
Properties=species:S:1:pos:R:3 gdb_104505=T pbc="F F F"
C       -0.79660000       1.42270000       0.67650000
C       -0.03890000       0.22040000       0.10070000
C        0.88500000      -0.46180000       1.09830000
C        2.10700000       0.34700000       1.54180000
C        2.99870000       0.70660000       0.44260000
C        3.72410000       0.99690000      -0.47100000
C        0.26330000      -1.36840000       2.14900000
C        1.07090000      -1.95200000       1.01250000
O        0.42370000      -2.63190000      -0.02330000
H       -0.11780000       2.22040000       0.99590000
H       -1.46890000       1.85030000      -0.07370000
H       -1.40160000       1.13400000       1.54300000
H       -0.74790000      -0.52150000      -0.27550000
H        0.55670000       0.53990000      -0.76270000
H        1.77700000       1.25900000       2.05620000
H        2.67030000      -0.22660000       2.28850000
H        4.36880000       1.25300000      -1.27480000
H        0.67570000      -1.38570000       3.15310000
H       -0.81230000      -1.50460000       2.09860000
H        2.06470000      -2.33500000       1.24800000
H        0.09810000      -3.46670000       0.32860000
