14
Properties=species:S:1:pos:R:3 gdb_4607=T pbc="F F F"
N        0.03130000       1.43740000       0.14380000
C       -0.00150000       0.03300000       0.03110000
C       -1.13540000      -0.69530000      -0.00180000
O       -1.15120000      -2.05880000      -0.00200000
C        0.01720000      -2.80630000      -0.02180000
N       -0.01860000      -4.07840000      -0.05210000
C        1.25180000      -2.04340000      -0.00080000
C        1.24620000      -0.69740000       0.03350000
H        0.69590000       1.86240000      -0.49250000
H       -0.87590000       1.86510000       0.00530000
H       -2.13820000      -0.28670000      -0.00900000
H       -0.98390000      -4.40880000      -0.06000000
H        2.16510000      -2.62380000      -0.00460000
H        2.17560000      -0.13700000       0.07160000
