19
Properties=species:S:1:pos:R:3 gdb_61279=T pbc="F F F"
C       -0.05310000       1.55510000      -0.03960000
C        0.00880000       0.03320000       0.00780000
C       -1.38180000      -0.61790000      -0.03380000
C       -1.34460000      -2.06800000       0.10690000
C       -1.30290000      -3.26180000       0.23570000
O        0.71760000      -0.46610000      -1.14850000
C        2.06170000      -0.56730000      -1.04950000
C        2.63840000      -1.16080000      -2.31190000
O        2.69450000      -0.23110000      -0.08040000
H        0.95640000       1.97030000      -0.00770000
H       -0.54890000       1.89600000      -0.95410000
H       -0.60870000       1.94060000       0.82100000
H        0.54930000      -0.29190000       0.89980000
H       -1.98740000      -0.18310000       0.77090000
H       -1.87070000      -0.34440000      -0.97720000
H       -1.27190000      -4.31720000       0.34740000
H        2.33490000      -0.56980000      -3.18040000
H        3.72470000      -1.18860000      -2.23730000
H        2.24800000      -2.17260000      -2.45520000
