13
Properties=species:S:1:pos:R:3 gdb_11217=T pbc="F F F"
O        0.08020000      -0.12180000       0.00550000
C        0.02610000       1.07310000       0.11760000
C        1.24330000       1.98680000       0.00370000
C        1.49830000       2.83280000       1.27760000
O        2.51530000       2.12610000       1.98130000
C        3.11090000       1.20730000       1.15420000
O        4.02060000       0.50980000       1.48980000
N        2.48900000       1.26680000      -0.08750000
H       -0.93620000       1.60620000       0.29220000
H        1.06850000       2.64560000      -0.85840000
H        1.85950000       3.83380000       1.02170000
H        0.61720000       2.92490000       1.91880000
H        2.50770000       0.40530000      -0.61470000
