19
Properties=species:S:1:pos:R:3 gdb_66385=T pbc="F F F"
C        0.02370000       1.54510000       0.01080000
C       -0.01420000       0.01770000       0.00290000
C        0.71240000      -0.54860000      -1.24320000
O        0.85190000      -1.95880000      -1.17720000
C        1.53880000      -2.34710000      -0.01710000
O        0.86290000      -1.97130000       1.15350000
C        0.72410000      -0.56190000       1.23590000
C       -1.45230000      -0.49090000       0.00690000
O       -2.42140000       0.22670000       0.01420000
H        1.05580000       1.90990000       0.00750000
H       -0.49180000       1.95180000      -0.86310000
H       -0.48270000       1.94250000       0.89440000
H        0.16120000      -0.32880000      -2.16200000
H        1.70460000      -0.07140000      -1.31730000
H        1.59240000      -3.43690000      -0.02320000
H        2.55580000      -1.90860000      -0.01960000
H        1.71700000      -0.08560000       1.30580000
H        0.18160000      -0.35200000       2.16220000
H       -1.55310000      -1.59440000       0.00260000
