17
Properties=species:S:1:pos:R:3 gdb_55577=T pbc="F F F"
C       -0.12490000       1.50340000      -0.39220000
C        0.18350000       0.07100000      -0.03790000
N        1.37330000      -0.35840000       0.01770000
N       -0.99290000      -0.68840000       0.21220000
C       -1.05980000      -2.01500000       0.56480000
O       -0.08930000      -2.73640000       0.69960000
C       -2.47090000      -2.56010000       0.76130000
C       -2.70160000      -3.78400000      -0.11970000
O       -3.72500000      -3.98730000      -0.71500000
H        0.81160000       2.02930000      -0.57130000
H       -0.74720000       1.56200000      -1.29300000
H       -0.66770000       2.00300000       0.41890000
H        1.39090000      -1.34720000       0.27010000
H       -1.86900000      -0.19750000       0.12370000
H       -2.52850000      -2.90330000       1.80270000
H       -3.27060000      -1.83660000       0.58810000
H       -1.83880000      -4.47910000      -0.15780000
