18
Properties=species:S:1:pos:R:3 gdb_10033=T pbc="F F F"
C        0.04670000       1.61090000      -0.63460000
C        0.03130000       0.10440000      -0.37200000
N        0.94880000      -0.64160000      -1.23680000
C        2.17710000      -1.06350000      -0.76500000
O        3.00760000      -1.66250000      -1.40760000
C        0.58560000      -0.93360000      -2.55070000
N       -0.53070000      -0.57280000      -3.02740000
C       -0.81760000      -0.94410000      -4.39840000
H        1.04540000       2.02900000      -0.47440000
H       -0.26250000       1.82020000      -1.66040000
H       -0.64770000       2.11430000       0.04500000
H        0.31600000      -0.10910000       0.66290000
H       -0.97170000      -0.29570000      -0.53660000
H        2.31820000      -0.78760000       0.29690000
H        1.35890000      -1.49480000      -3.08200000
H       -1.73330000      -1.54560000      -4.43060000
H       -1.01100000      -0.04190000      -4.99010000
H       -0.00950000      -1.51320000      -4.88370000
