17
Properties=species:S:1:pos:R:3 gdb_30393=T pbc="F F F"
C       -0.06180000       1.45370000      -0.02240000
N       -0.01690000       0.00270000      -0.02480000
C        0.58210000      -0.59740000       0.94470000
C        1.24770000       0.02620000       2.09790000
C        1.82700000      -0.72250000       3.04170000
O        1.86450000      -2.08340000       3.02180000
C        1.26660000      -2.71450000       1.96980000
N        1.46190000      -4.07860000       2.06660000
C        0.64160000      -2.04800000       0.97730000
H        0.93790000       1.91480000      -0.06100000
H       -0.60900000       1.79470000      -0.90590000
H       -0.57690000       1.86770000       0.85910000
H        1.27680000       1.10180000       2.20720000
H        2.33120000      -0.34210000       3.92100000
H        1.52740000      -4.41590000       3.01710000
H        0.83420000      -4.62810000       1.49920000
H        0.17240000      -2.59630000       0.16990000
