12
Properties=species:S:1:pos:R:3 gdb_13062=T pbc="F F F"
O       -0.14660000       0.03120000      -0.07700000
C       -0.07120000       1.21600000      -0.01970000
O        1.10880000       1.87500000      -0.16720000
C        1.09970000       3.27910000      -0.10520000
C        2.31780000       3.92820000       0.57250000
O        2.62650000       4.64510000      -0.66600000
C        1.62510000       4.01570000      -1.36090000
O        1.35620000       4.09390000      -2.51160000
H       -0.92060000       1.90200000       0.16110000
H        0.13020000       3.66370000       0.23050000
H        2.12170000       4.62360000       1.38960000
H        3.11040000       3.22330000       0.82770000
