17
Properties=species:S:1:pos:R:3 gdb_23059=T pbc="F F F"
O       -0.02170000       1.16200000       0.26410000
N       -0.00000000      -0.24160000       0.31440000
C       -1.12630000      -0.73700000       0.00700000
C       -2.52110000      -0.28340000      -0.36890000
N       -2.92990000      -1.73080000      -0.44300000
C       -1.58460000      -2.14160000       0.01980000
C       -0.80530000      -3.37670000      -0.36690000
C       -1.15220000      -3.13030000       1.08060000
O       -0.19960000      -2.76850000       2.02360000
H        0.88920000       1.39250000       0.47660000
H       -3.01590000       0.31180000       0.40660000
H       -2.61040000       0.23810000      -1.32670000
H       -3.65260000      -1.95080000       0.23630000
H       -1.35460000      -4.15230000      -0.89150000
H        0.22240000      -3.23100000      -0.68580000
H       -1.92010000      -3.76260000       1.51920000
H        0.22470000      -1.94830000       1.72920000
