16
Properties=species:S:1:pos:R:3 gdb_123930=T pbc="F F F"
C       -0.01360000       1.51550000      -0.01870000
C        1.41470000       2.07390000       0.03810000
O        2.11040000       1.71820000       1.24430000
C        1.94000000       0.40770000       1.54430000
C        1.00700000      -0.42310000       1.00800000
C       -0.02620000      -0.03210000       0.01400000
O        1.13500000      -1.65050000       1.54630000
N        2.17850000      -1.63210000       2.47200000
C        2.65100000      -0.40660000       2.46230000
H       -0.57750000       1.90500000       0.83570000
H       -0.49910000       1.88530000      -0.92680000
H        1.99660000       1.70880000      -0.82070000
H        1.41090000       3.16550000       0.01630000
H       -1.01550000      -0.40690000       0.29710000
H        0.19680000      -0.44880000      -0.97670000
H        3.47660000      -0.14680000       3.10840000
