18
Properties=species:S:1:pos:R:3 gdb_54455=T pbc="F F F"
C        0.12580000       1.19750000      -0.76870000
C       -0.08000000       0.09660000       0.25310000
O        0.68410000      -0.08550000       1.17850000
C       -1.28010000      -0.77050000       0.10580000
C       -2.02860000      -0.98900000      -1.16270000
N       -2.66220000      -0.15840000      -0.14120000
C       -3.16310000      -1.01520000       1.01100000
C       -2.94460000      -2.49970000       0.94060000
C       -1.79790000      -1.59530000       1.29730000
H        0.88880000       1.88470000      -0.40170000
H        0.46440000       0.77200000      -1.72050000
H       -0.81010000       1.73210000      -0.95650000
H       -1.71760000      -0.40920000      -2.02610000
H       -2.41370000      -1.97100000      -1.41140000
H       -3.88400000      -0.54710000       1.66770000
H       -3.36380000      -3.01870000       1.79770000
H       -2.98990000      -3.08600000       0.02970000
H       -1.24730000      -1.64560000       2.22450000
