18
Properties=species:S:1:pos:R:3 gdb_74143=T pbc="F F F"
C        0.09190000       1.53060000       0.01480000
C       -0.00180000      -0.00250000       0.05440000
O       -1.35920000      -0.40360000       0.27500000
C        0.67270000      -0.66220000      -1.16290000
C        2.00890000      -1.22200000      -0.62860000
O        2.90700000      -1.64650000      -1.32520000
C        1.94340000      -1.16810000       0.82690000
C        0.79800000      -0.56470000       1.22610000
N        0.31420000      -0.33820000       2.47480000
H        1.12660000       1.85310000      -0.13010000
H       -0.50120000       1.92010000      -0.82120000
H       -0.28260000       1.96830000       0.94370000
H       -1.91450000       0.06780000      -0.35450000
H        0.05930000      -1.49860000      -1.51240000
H        0.83920000       0.01400000      -2.00530000
H        2.70700000      -1.58870000       1.46840000
H        0.71660000      -0.85140000       3.24310000
H       -0.68430000      -0.19780000       2.52790000
