18
Properties=species:S:1:pos:R:3 gdb_37410=T pbc="F F F"
C        0.00160000       1.46790000      -0.17490000
C        1.27890000       0.71420000      -0.02370000
C        1.87670000       0.42570000       1.35940000
C        1.10190000       1.18150000       2.46720000
C        0.00260000       0.11120000       2.64870000
O        0.84600000      -1.01070000       3.06070000
C        1.27090000      -1.01420000       1.68260000
C       -0.13880000      -0.61330000       1.23630000
N       -0.03620000       0.00620000      -0.08380000
H       -0.39300000       2.06010000       0.64200000
H       -0.26090000       1.85000000      -1.15860000
H        1.92050000       0.59680000      -0.89400000
H        2.96100000       0.51770000       1.39680000
H        1.67130000       1.24280000       3.39750000
H        0.77870000       2.18330000       2.18960000
H       -0.83860000       0.29870000       3.31580000
H        1.80490000      -1.90810000       1.36260000
H       -0.89090000      -1.40010000       1.26400000
