12
Properties=species:S:1:pos:R:3 gdb_130827=T pbc="F F F"
O       -0.08380000       0.01590000       0.00210000
C       -0.03740000       1.21450000       0.00850000
C        1.32410000       1.95340000      -0.00120000
O        2.36550000       1.34360000      -0.01540000
C        1.29310000       3.43680000       0.00790000
N        0.14910000       4.09430000       0.02350000
O        0.48530000       5.42630000       0.02800000
C        1.82910000       5.54420000       0.01500000
C        2.40980000       4.32150000       0.00180000
H       -0.93840000       1.85610000       0.02130000
H        2.20620000       6.55450000       0.01720000
H        3.45330000       4.05970000      -0.01030000
