21
Properties=species:S:1:pos:R:3 gdb_72030=T pbc="F F F"
C       -0.02200000       1.49690000       0.02390000
C        0.03510000      -0.00530000      -0.02700000
C        0.17810000      -0.77100000      -1.34180000
C        0.05090000      -2.17760000      -0.72240000
C        1.15170000      -2.16190000       0.35760000
C        0.66110000      -0.89960000       1.06570000
C        1.29860000      -0.38990000       2.32900000
C       -0.83280000      -0.92430000       0.80960000
O       -1.15710000      -2.07640000       0.05250000
H        0.91350000       1.94850000      -0.32710000
H       -0.83080000       1.87840000      -0.61020000
H       -0.20170000       1.86460000       1.03890000
H       -0.63290000      -0.55340000      -2.04410000
H        1.14000000      -0.61270000      -1.83950000
H       -0.00860000      -3.03480000      -1.38990000
H        1.11200000      -3.04620000       1.00150000
H        2.15730000      -2.06600000      -0.06390000
H        2.34010000      -0.08980000       2.16290000
H        0.76860000       0.47860000       2.73230000
H        1.29780000      -1.16320000       3.10610000
H       -1.59740000      -0.60780000       1.50670000
