21
Properties=species:S:1:pos:R:3 gdb_115806=T pbc="F F F"
C        0.10160000       1.30700000       0.18820000
O       -0.17060000      -0.04530000      -0.09810000
C        0.55650000      -0.55580000      -1.19320000
C        2.06950000      -0.77890000      -0.93460000
C        2.46560000      -1.94790000      -1.86320000
C        1.18720000      -2.76720000      -2.00120000
C        1.09770000      -3.89450000      -2.99180000
O        0.55510000      -2.98290000      -0.72630000
C        0.05540000      -1.93450000      -1.56930000
H        1.13900000       1.46480000       0.51780000
H       -0.08360000       1.95280000      -0.68560000
H       -0.57000000       1.60770000       0.99600000
H        0.41520000       0.10610000      -2.06820000
H        2.66970000       0.11690000      -1.10780000
H        2.18360000      -1.07340000       0.11110000
H        2.76740000      -1.58650000      -2.85410000
H        3.29720000      -2.53990000      -1.46660000
H        1.83130000      -4.67340000      -2.75560000
H        0.10350000      -4.34750000      -2.97260000
H        1.30340000      -3.53870000      -4.00700000
H       -0.96050000      -2.06700000      -1.93280000
