20
Properties=species:S:1:pos:R:3 gdb_112000=T pbc="F F F"
C       -0.55840000       1.09570000      -0.23140000
N       -0.13490000      -0.23180000       0.18030000
C        1.20210000      -0.76070000      -0.11800000
C        2.30030000       0.21840000      -0.38680000
C        2.54040000       0.98760000       0.67860000
C        1.70960000       0.56900000       1.87590000
C        1.06400000       1.71110000       2.66250000
O        2.12250000       2.47240000       3.23110000
C        0.76030000      -0.49110000       1.29840000
H        0.23390000       1.85620000      -0.25170000
H       -0.98470000       1.02310000      -1.23790000
H       -1.35090000       1.43460000       0.44370000
H        1.22010000      -1.74820000      -0.57120000
H        2.79090000       0.30310000      -1.34990000
H        3.23240000       1.81980000       0.72930000
H        2.36810000       0.06010000       2.59600000
H        0.43840000       2.33360000       2.00930000
H        0.41230000       1.29040000       3.44440000
H        1.74030000       3.23300000       3.67820000
H        0.42800000      -1.28320000       1.96440000
