22
Properties=species:S:1:pos:R:3 gdb_64274=T pbc="F F F"
C        0.01510000       1.52030000       0.03970000
C       -0.04120000      -0.00500000      -0.02270000
C       -1.49580000      -0.48780000       0.10880000
C        0.59850000      -0.50790000      -1.33410000
N        1.05430000      -1.90990000      -1.31300000
C        2.38980000      -2.15070000      -0.76270000
C        1.18800000      -2.58100000      -0.00950000
C        0.78520000      -1.85020000       1.25690000
O        0.76410000      -0.44720000       1.08410000
H        1.05490000       1.85550000       0.08220000
H       -0.45990000       1.96220000      -0.84180000
H       -0.50040000       1.88780000       0.93190000
H       -2.12370000       0.03160000      -0.62120000
H       -1.60040000      -1.56010000      -0.07730000
H       -1.87990000      -0.26740000       1.10950000
H       -0.13070000      -0.40610000      -2.14700000
H        1.44910000       0.13500000      -1.58630000
H        2.99770000      -2.87360000      -1.30110000
H        2.93270000      -1.29310000      -0.36850000
H        0.90470000      -3.63280000      -0.02660000
H       -0.19300000      -2.21840000       1.60010000
H        1.50420000      -2.04670000       2.05990000
