15
Properties=species:S:1:pos:R:3 gdb_12480=T pbc="F F F"
N        0.11810000       0.92950000       0.75270000
C       -0.05520000       0.03860000      -0.12000000
O       -1.27280000      -0.53420000      -0.25610000
C       -1.44050000      -1.45350000      -1.32990000
C       -0.72210000      -2.77990000      -1.03570000
O        0.50960000      -2.57920000      -0.35380000
C        1.38720000      -1.69330000      -0.95260000
O        0.87390000      -0.35480000      -1.05360000
H        1.08550000       1.24350000       0.72870000
H       -2.51710000      -1.62230000      -1.40930000
H       -1.08750000      -1.00950000      -2.26460000
H       -1.31410000      -3.39880000      -0.35790000
H       -0.57000000      -3.33440000      -1.97410000
H        2.28300000      -1.68720000      -0.32300000
H        1.64320000      -1.97150000      -1.98480000
