15
Properties=species:S:1:pos:R:3 gdb_85805=T pbc="F F F"
C       -0.02650000       1.42800000       0.14330000
N       -0.00380000      -0.00720000       0.01130000
C       -1.08120000      -1.00270000       0.02250000
C        0.01940000      -2.10460000      -0.04180000
O        0.03830000      -2.91340000       1.10350000
C        0.04820000      -2.88370000      -1.28340000
N        0.09330000      -3.50000000      -2.26010000
C        1.03000000      -0.89560000       0.00230000
O        2.22410000      -0.79460000       0.06930000
H        1.00750000       1.77930000       0.13950000
H       -0.56400000       1.89240000      -0.69070000
H       -0.50260000       1.73390000       1.08250000
H       -1.64600000      -1.04610000       0.95850000
H       -1.75590000      -0.95090000      -0.83620000
H        0.93180000      -3.26660000       1.20060000
