20
Properties=species:S:1:pos:R:3 gdb_17269=T pbc="F F F"
C        0.05750000       1.52480000      -0.31860000
C       -0.03630000       0.06660000       0.07660000
C        1.16970000      -0.84070000       0.01530000
C        0.55790000      -0.48500000       1.35260000
C        1.31160000       0.36590000       2.35710000
C        2.21620000      -0.47480000       3.22840000
C        2.44440000      -0.17870000       4.64720000
O        1.57560000      -1.24260000       4.25370000
H        1.02710000       1.96070000      -0.06070000
H       -0.07130000       1.64010000      -1.40050000
H       -0.71710000       2.12450000       0.17280000
H       -0.97620000      -0.39710000      -0.21330000
H        1.05610000      -1.84980000      -0.36560000
H        2.12130000      -0.37960000      -0.23540000
H       -0.01970000      -1.27370000       1.82750000
H        1.92140000       1.12030000       1.84580000
H        0.60750000       0.90470000       3.00330000
H        2.99310000      -1.02530000       2.69430000
H        3.37370000      -0.48470000       5.12630000
H        1.95280000       0.68170000       5.10060000
