16
Properties=species:S:1:pos:R:3 gdb_54471=T pbc="F F F"
N        0.12000000       1.27330000       0.36870000
C       -0.05030000       0.13300000      -0.36910000
O        0.76360000      -0.27880000      -1.16820000
C       -1.36680000      -0.54460000      -0.14350000
O       -1.36020000      -1.97700000      -0.04980000
C       -2.14540000      -1.37060000      -1.07000000
C       -3.48420000      -0.85010000      -0.46010000
C       -3.55640000      -1.11000000       1.02110000
C       -2.68250000       0.00510000       0.51290000
H        1.02830000       1.70880000       0.33130000
H       -0.45040000       1.45000000       1.17860000
H       -1.93880000      -1.64580000      -2.09670000
H       -4.33550000      -0.55450000      -1.05760000
H       -4.47810000      -0.78330000       1.49180000
H       -3.11240000      -2.00310000       1.44160000
H       -2.84210000       1.04890000       0.74890000
