13
Properties=species:S:1:pos:R:3 gdb_129418=T pbc="F F F"
N        0.00330000       1.25880000       0.44040000
C        0.06540000      -0.01840000      -0.05540000
N        0.91750000      -0.60280000      -0.77780000
O       -1.05020000      -0.70760000       0.40660000
C       -1.07240000      -2.04170000       0.25990000
C       -1.89480000      -2.84010000      -0.47090000
N       -1.56110000      -4.12780000      -0.14380000
N       -0.63090000      -4.15690000       0.70160000
O       -0.27540000      -2.78760000       1.00780000
H        0.53180000       1.95920000      -0.05270000
H       -0.89040000       1.56220000       0.79440000
H        1.68690000       0.00580000      -1.04200000
H       -2.66350000      -2.59160000      -1.18010000
