23
Properties=species:S:1:pos:R:3 gdb_122423=T pbc="F F F"
C       -0.96770000       0.73090000       0.16250000
C        0.35720000       0.01080000      -0.02120000
O        0.73380000      -0.56490000       1.21350000
C        1.95530000      -1.26410000       1.15640000
C        2.24070000      -1.81690000       2.54030000
C        1.44720000      -3.04980000       3.01400000
C        2.83610000      -3.71210000       3.15790000
C        3.12090000      -4.99040000       2.39710000
O        3.48220000      -2.55420000       2.56340000
H       -0.87590000       1.51630000       0.91810000
H       -1.28630000       1.18920000      -0.77850000
H       -1.74280000       0.03140000       0.48840000
H        0.26900000      -0.77220000      -0.79360000
H        1.13610000       0.71260000      -0.36470000
H        1.90940000      -2.09010000       0.42660000
H        2.78310000      -0.60210000       0.84960000
H        2.24890000      -0.99050000       3.26380000
H        0.86380000      -2.93290000       3.92770000
H        0.81800000      -3.49450000       2.23870000
H        3.15190000      -3.81980000       4.20540000
H        2.79370000      -4.90460000       1.35630000
H        4.19350000      -5.20950000       2.40320000
H        2.59710000      -5.83440000       2.85970000
