17
Properties=species:S:1:pos:R:3 gdb_127412=T pbc="F F F"
C       -0.15170000       1.50640000      -0.05230000
N        0.11160000       0.08350000       0.00850000
C        0.76910000      -0.52410000      -1.17440000
C        1.32710000      -1.89770000      -0.69270000
C        1.48320000      -1.62500000       0.77560000
N        2.07860000      -2.17770000       1.79290000
O        1.75970000      -1.35130000       2.87200000
C        0.97040000      -0.31590000       2.44700000
C        0.76250000      -0.45350000       1.11550000
H        0.76980000       2.11170000      -0.10730000
H       -0.76230000       1.72820000      -0.93250000
H       -0.71520000       1.81500000       0.83260000
H        0.05630000      -0.61830000      -1.99840000
H        1.60070000       0.11470000      -1.51620000
H        0.59920000      -2.69920000      -0.86010000
H        2.25230000      -2.17240000      -1.20250000
H        0.68120000       0.38840000       3.20830000
