21
Properties=species:S:1:pos:R:3 gdb_94011=T pbc="F F F"
C       -0.13190000       1.57070000       0.03470000
C       -0.00840000       0.03980000       0.01710000
C        0.63650000      -0.46390000      -1.28330000
C        1.00810000      -1.95030000      -1.20090000
C        1.98560000      -2.24860000      -0.04450000
C        3.42650000      -1.91910000      -0.41890000
O        4.37430000      -2.61930000      -0.17450000
C        1.63020000      -1.46400000       1.19950000
C        0.74930000      -0.46350000       1.22180000
H        0.85600000       2.04330000       0.00200000
H       -0.70520000       1.92620000      -0.82770000
H       -0.63850000       1.91780000       0.94130000
H       -1.02980000      -0.37010000       0.07400000
H       -0.04170000      -0.29340000      -2.12690000
H        1.53460000       0.13460000      -1.48470000
H        0.09940000      -2.54170000      -1.03770000
H        1.43310000      -2.29210000      -2.15180000
H        1.98140000      -3.31830000       0.19420000
H        3.55530000      -0.93900000      -0.93400000
H        2.14550000      -1.75800000       2.11020000
H        0.53650000       0.03220000       2.16750000
