19
Properties=species:S:1:pos:R:3 gdb_45584=T pbc="F F F"
O       -0.11060000      -0.05480000       0.12670000
C       -0.09270000       1.13830000       0.05580000
C       -1.17560000       2.24030000       0.13960000
C       -0.06850000       3.16750000       0.72570000
C        0.00630000       3.13570000       2.26210000
C        1.46340000       3.11450000       2.74760000
C        2.20230000       1.93290000       2.12010000
O        2.25510000       2.04200000       0.69810000
C        1.01540000       2.22390000       0.09600000
H       -1.51750000       2.54860000      -0.85310000
H       -2.04260000       2.01790000       0.76460000
H       -0.04810000       4.19020000       0.34580000
H       -0.54460000       3.98070000       2.68690000
H       -0.48890000       2.22780000       2.63280000
H        1.97750000       4.04350000       2.47160000
H        1.50220000       3.03060000       3.83920000
H        3.24490000       1.89300000       2.44510000
H        1.71900000       0.98640000       2.40850000
H        1.21010000       2.52800000      -0.94040000
