21
Properties=species:S:1:pos:R:3 gdb_119224=T pbc="F F F"
C        0.02130000       1.38850000      -0.11970000
C        0.19640000      -0.10490000       0.02630000
C        1.53790000      -0.75090000       0.04580000
C        0.71130000      -0.75280000       1.32990000
C        1.12880000       0.07490000       2.53000000
C        2.33150000      -0.51400000       3.26450000
O        2.61360000       0.32970000       4.36870000
C        0.03270000      -2.04050000       1.64350000
O       -0.23560000      -2.89830000       0.83430000
H        0.86800000       1.94810000       0.28660000
H       -0.06110000       1.64920000      -1.18050000
H       -0.88800000       1.73970000       0.37950000
H       -0.58280000      -0.70050000      -0.44140000
H        1.65650000      -1.71020000      -0.44550000
H        2.41130000      -0.10610000       0.03820000
H        1.37830000       1.09790000       2.23750000
H        0.29540000       0.15260000       3.24010000
H        2.10540000      -1.54180000       3.59370000
H        3.18850000      -0.57810000       2.57540000
H        3.37190000      -0.02940000       4.83830000
H       -0.24840000      -2.16500000       2.71470000
