16
Properties=species:S:1:pos:R:3 gdb_129640=T pbc="F F F"
N        0.04890000       1.39260000       0.06840000
C       -0.02530000       0.00040000       0.03160000
C       -1.20660000      -0.68210000       0.00710000
N       -2.43750000       0.00470000      -0.05520000
C       -1.19180000      -2.12760000      -0.05040000
N       -2.30990000      -2.77780000      -0.13990000
C        0.15270000      -2.69590000      -0.00250000
N        1.26310000      -2.02870000       0.07260000
N        1.16210000      -0.68940000       0.06700000
H        0.82840000       1.76940000      -0.45900000
H       -0.82150000       1.78920000      -0.27290000
H       -2.63860000       0.51710000       0.79840000
H       -3.16520000      -0.69670000      -0.18320000
H       -2.14350000      -3.78280000      -0.19500000
H        0.26470000      -3.77720000       0.00060000
H        2.03010000      -0.20560000       0.22930000
