16
Properties=species:S:1:pos:R:3 gdb_47632=T pbc="F F F"
N       -0.05750000       0.91330000      -0.98180000
C        0.03900000       0.05210000      -0.06220000
O        1.17280000      -0.67070000       0.13790000
C        1.31610000      -1.43710000       1.33550000
C        0.62620000      -2.78960000       1.23230000
C       -0.87010000      -2.72010000       1.18320000
C       -1.62950000      -1.62980000       1.02710000
C       -1.20850000      -0.22600000       0.78290000
O       -1.90830000       0.69640000       1.13570000
H        0.82410000       0.97620000      -1.49750000
H        2.39330000      -1.56770000       1.46140000
H        0.93960000      -0.87230000       2.19790000
H        1.00670000      -3.32440000       0.35060000
H        0.92060000      -3.40020000       2.09700000
H       -1.38030000      -3.66750000       1.34600000
H       -2.70890000      -1.71620000       1.11780000
