20
Properties=species:S:1:pos:R:3 gdb_97444=T pbc="F F F"
C        0.62290000       0.69710000       0.49060000
N       -0.10260000      -0.09350000      -0.48180000
C        0.55730000      -0.92330000      -1.15580000
O       -0.05840000      -1.67210000      -2.10370000
C        0.74530000      -2.66010000      -2.74350000
C        0.90100000      -3.90850000      -1.89780000
C       -0.37510000      -4.56940000      -1.43210000
C        2.14740000      -4.67740000      -2.02670000
O        1.94300000      -3.80950000      -0.90960000
H        1.70110000       0.47300000       0.53830000
H        0.50300000       1.76240000       0.26140000
H        0.19500000       0.53710000       1.48690000
H        1.63540000      -1.11340000      -1.05760000
H        0.22580000      -2.89480000      -3.67730000
H        1.73510000      -2.25440000      -2.98700000
H       -0.95750000      -4.93040000      -2.28660000
H       -0.14840000      -5.41490000      -0.77900000
H       -0.99370000      -3.85530000      -0.88210000
H        2.13880000      -5.74240000      -1.79980000
H        2.91800000      -4.36260000      -2.73000000
