21
Properties=species:S:1:pos:R:3 gdb_70524=T pbc="F F F"
C       -0.30670000       1.56320000       0.28530000
C       -0.09790000       0.07270000       0.11290000
C       -1.25420000      -0.64830000      -0.56530000
C       -0.87600000      -1.91860000      -1.33600000
C       -0.46240000      -3.10700000      -0.51110000
C        0.22060000      -3.14640000       0.63160000
C        0.81900000      -2.05260000       1.47370000
C        0.84040000      -0.61240000       1.01460000
O        1.22530000      -0.29330000      -0.32930000
H        0.54230000       2.02420000       0.79610000
H       -0.42320000       2.04660000      -0.69090000
H       -1.21420000       1.76270000       0.86620000
H       -2.02200000      -0.87690000       0.18490000
H       -1.71750000       0.05250000      -1.27150000
H       -1.73890000      -2.20920000      -1.94600000
H       -0.07350000      -1.67160000      -2.04300000
H       -0.75620000      -4.06830000      -0.92920000
H        0.40900000      -4.13330000       1.05290000
H        0.33730000      -2.06280000       2.46470000
H        1.86240000      -2.33470000       1.68260000
H        1.32870000       0.02720000       1.75560000
