13
Properties=species:S:1:pos:R:3 gdb_24889=T pbc="F F F"
O       -0.08180000      -0.04550000       0.00330000
C        0.01100000       1.16000000       0.00960000
N       -1.17320000       1.94360000       0.02950000
C       -1.20390000       3.30540000       0.03700000
C       -0.00780000       3.97440000       0.02400000
C        1.16640000       3.17560000       0.00360000
N        1.20440000       1.87140000      -0.00370000
C       -2.47330000       3.94230000       0.05760000
C       -3.55690000       4.46440000       0.07520000
H       -2.03640000       1.41800000       0.03850000
H        0.02970000       5.05330000       0.02910000
H        2.13260000       3.68130000      -0.00730000
H       -4.51050000       4.93390000       0.09060000
