13
Properties=species:S:1:pos:R:3 gdb_123534=T pbc="F F F"
C        0.04200000       1.37810000       0.00970000
N        1.30350000       1.85280000      -0.00010000
N        2.05740000       0.76250000      -0.01370000
N        3.39360000       0.81860000      -0.02670000
C        3.97220000      -0.35740000      -0.03900000
N        3.38420000      -1.58690000      -0.04010000
C        2.07250000      -1.60440000      -0.02720000
C        1.31200000      -0.41930000      -0.01300000
C       -0.02110000      -0.01590000       0.00250000
H       -0.77640000       2.08240000       0.02180000
H        5.05610000      -0.33470000      -0.04970000
H        1.57330000      -2.57080000      -0.02770000
H       -0.89400000      -0.64730000       0.00770000
