17
Properties=species:S:1:pos:R:3 gdb_92968=T pbc="F F F"
C       -0.01480000       1.49870000      -0.19960000
C       -0.09110000      -0.01510000       0.00400000
N        0.49780000      -0.75860000      -1.13520000
C        1.74500000      -1.17740000      -0.74660000
N        2.00610000      -1.14410000       0.50720000
H        2.89920000      -0.24570000       1.94570000
C        0.79750000      -0.59700000       1.15440000
C        1.17200000       0.37690000       2.27600000
O        2.47740000       0.37690000       2.57380000
O        0.36790000       1.05960000       2.85420000
H        1.02340000       1.82850000      -0.31460000
H       -0.56950000       1.79030000      -1.09800000
H       -0.44600000       2.01660000       0.65860000
H       -1.13210000      -0.31580000       0.13980000
H        0.37440000      -0.39310000      -2.06880000
H        2.44500000      -1.54520000      -1.49130000
H        0.25700000      -1.42040000       1.64130000
