16
Properties=species:S:1:pos:R:3 gdb_124390=T pbc="F F F"
C       -0.14780000       1.62910000       0.84950000
C       -0.09030000       0.26720000       0.11360000
C        0.85280000      -0.64280000       0.76630000
C        1.60930000      -1.38880000       1.32890000
C       -1.45940000      -0.35640000      -0.00210000
C       -2.60860000       0.01620000      -0.66470000
N       -3.58330000      -0.90130000      -0.41430000
N       -3.10560000      -1.82760000       0.36770000
N       -1.82510000      -1.50070000       0.62060000
H        0.84650000       2.08110000       0.88510000
H       -0.82650000       2.30810000       0.32760000
H       -0.50840000       1.49560000       1.87220000
H        0.27410000       0.45570000      -0.90510000
H        2.29860000      -2.03900000       1.80950000
H       -2.78640000       0.87190000      -1.29600000
H       -1.24670000      -2.09490000       1.19560000
