15
Properties=species:S:1:pos:R:3 gdb_66049=T pbc="F F F"
O       -0.00770000       1.45630000      -0.04900000
C        0.03570000       0.05700000      -0.01240000
C        0.17890000      -0.56720000       1.41070000
N       -1.29120000      -0.68770000       1.48470000
C       -1.42290000      -0.53900000       0.01250000
C       -2.51340000       0.28680000      -0.46570000
C       -3.43120000       0.94220000      -0.87880000
C        0.93160000      -0.48130000      -1.04150000
N        1.66120000      -0.89590000      -1.83660000
H        0.88790000       1.79620000       0.06150000
H        0.73340000      -1.51400000       1.39600000
H        0.61500000       0.10350000       2.15780000
H       -1.64200000      -1.56470000       1.85190000
H       -1.42200000      -1.49680000      -0.52680000
H       -4.23630000       1.53570000      -1.23620000
