17
Properties=species:S:1:pos:R:3 gdb_34882=T pbc="F F F"
N       -0.11550000      -1.19530000      -0.10720000
C       -0.07620000      -0.04120000      -0.04160000
C        0.01310000       1.41120000       0.04000000
C       -0.26160000       2.09000000       1.39890000
C        0.79130000       1.72930000       2.40580000
C        1.11380000       2.76440000       1.36230000
C        1.42870000       2.06390000       0.05740000
C        2.69580000       1.51690000      -0.46810000
N        2.05800000       2.70830000      -1.07760000
H       -0.59530000       1.85750000      -0.75290000
H       -1.22300000       2.50150000       1.67530000
H        0.61460000       2.11340000       3.40490000
H        1.26940000       0.75360000       2.37910000
H        1.38230000       3.78660000       1.59400000
H        3.63010000       1.71440000       0.04970000
H        2.65760000       0.57160000      -1.00350000
H        1.59370000       2.45730000      -1.94750000
