17
Properties=species:S:1:pos:R:3 gdb_42598=T pbc="F F F"
O        0.04290000       0.00240000      -0.06000000
C       -0.00580000       1.19070000       0.03350000
C       -1.11260000       2.27170000       0.04290000
C       -0.81380000       3.01480000       1.35100000
C       -0.11070000       4.32200000       1.05000000
C       -0.16610000       4.55220000      -0.44550000
C       -0.11550000       3.08690000      -0.87160000
C        1.00200000       2.36340000      -0.02130000
C        0.71980000       3.08130000       1.30450000
H       -2.14400000       2.06530000      -0.23310000
H       -1.36300000       2.82830000       2.26310000
H       -0.12380000       5.13040000       1.76990000
H       -1.08870000       5.04640000      -0.76790000
H        0.68920000       5.12340000      -0.82190000
H       -0.13720000       2.84510000      -1.93220000
H        2.02880000       2.24620000      -0.35980000
H        1.33720000       2.94530000       2.18110000
