11
Properties=species:S:1:pos:R:3 gdb_25183=T pbc="F F F"
O       -0.04100000      -0.00190000       0.34050000
C        0.03680000       1.14730000       0.04110000
O       -1.15180000       1.82200000      -0.34840000
C       -1.14030000       3.10780000      -0.69650000
N       -0.11950000       3.88840000      -0.73220000
C        1.07450000       3.32140000      -0.37110000
C        1.20940000       2.01640000       0.00750000
C        2.47040000       1.46670000       0.37560000
N        3.50640000       1.04380000       0.67010000
H       -2.13120000       3.46230000      -0.96460000
H        1.93980000       3.97590000      -0.39950000
