18
Properties=species:S:1:pos:R:3 gdb_32429=T pbc="F F F"
C       -0.15550000       1.51420000      -0.05830000
C        0.06980000      -0.00800000      -0.02400000
C        0.77740000      -0.48270000       1.20910000
C        2.07870000      -0.85330000       1.33540000
O        2.36290000      -1.23290000       2.61790000
C        1.20260000      -1.09590000       3.31830000
O        1.22420000      -1.36400000       4.64210000
C        0.19510000      -0.64960000       2.52210000
N       -1.16510000      -0.48950000       2.85850000
H        0.79810000       2.04980000      -0.02360000
H       -0.68380000       1.81140000      -0.96980000
H       -0.75200000       1.85330000       0.79570000
H       -0.89950000      -0.51680000      -0.09670000
H        0.64530000      -0.30570000      -0.90770000
H        2.89700000      -0.91440000       0.63720000
H        1.52800000      -2.26930000       4.78410000
H       -1.30830000      -0.65980000       3.84770000
H       -1.50370000       0.44370000       2.64990000
