15
Properties=species:S:1:pos:R:3 gdb_10278=T pbc="F F F"
C        0.01120000       1.36520000       0.50470000
C        0.05230000       0.01910000      -0.17800000
O        1.01930000      -0.39860000      -0.76350000
C       -1.24340000      -0.83610000      -0.14710000
C       -0.97370000      -2.31700000      -0.51730000
O       -2.16560000      -3.05540000      -0.64070000
C       -1.94960000      -0.75060000       1.12880000
N       -2.49820000      -0.73170000       2.14690000
H        0.92480000       1.91640000       0.28130000
H       -0.86580000       1.93720000       0.18260000
H       -0.08450000       1.22930000       1.58750000
H       -1.90850000      -0.41630000      -0.91580000
H       -0.47800000      -2.33380000      -1.48850000
H       -0.28260000      -2.75120000       0.21720000
H       -2.54980000      -3.16620000       0.23620000
