16
Properties=species:S:1:pos:R:3 gdb_10282=T pbc="F F F"
C        0.01670000       1.51590000       0.17370000
C        0.11090000      -0.00390000       0.04320000
C        0.63170000      -0.46880000      -1.33900000
C        2.00250000      -0.02680000      -1.58710000
N        3.10070000       0.28070000      -1.78200000
C        0.44230000      -2.00320000      -1.49530000
N        1.51410000      -2.70280000      -1.93690000
O       -0.63430000      -2.50050000      -1.23890000
H        0.99410000       1.99320000       0.05020000
H       -0.66080000       1.93730000      -0.57710000
H       -0.36710000       1.79050000       1.16020000
H        0.76500000      -0.41350000       0.82080000
H       -0.86810000      -0.47270000       0.16690000
H       -0.00570000      -0.02130000      -2.11290000
H        2.40560000      -2.27140000      -2.11480000
H        1.41540000      -3.69870000      -2.04770000
