22
Properties=species:S:1:pos:R:3 gdb_88162=T pbc="F F F"
C        0.38190000       1.74730000      -0.18200000
C        0.03540000       0.26660000       0.02260000
C        0.63440000      -0.60820000      -1.09340000
O        1.98280000      -0.82680000      -0.70350000
C        1.97000000      -1.06560000       0.69810000
C        0.72520000      -0.35080000       1.24990000
C        0.67170000       0.23420000       2.61750000
N        0.03010000      -1.04670000       2.33610000
C       -1.42330000      -1.07760000       2.37120000
H        1.46330000       1.87820000      -0.28680000
H       -0.09390000       2.13360000      -1.08990000
H        0.04620000       2.36120000       0.65870000
H       -1.05060000       0.14730000       0.07170000
H        0.08940000      -1.56350000      -1.17590000
H        0.64270000      -0.12630000      -2.07490000
H        1.89620000      -2.13980000       0.92270000
H        2.90950000      -0.68600000       1.11170000
H        1.54430000       0.20340000       3.26690000
H        0.02650000       1.09950000       2.77280000
H       -1.90580000      -0.12940000       2.08320000
H       -1.79190000      -1.86670000       1.70710000
H       -1.74240000      -1.31860000       3.39030000
