17
Properties=species:S:1:pos:R:3 gdb_97832=T pbc="F F F"
C       -0.25910000       1.61900000      -0.03630000
C       -0.01860000       0.09950000       0.02270000
C        0.74800000      -0.40800000      -1.10870000
C        1.38530000      -0.80140000      -2.05300000
C        2.13330000      -1.31310000      -3.17810000
O        3.54850000      -1.55140000      -2.92130000
C        3.48400000      -2.95890000      -3.21790000
C        1.98630000      -2.83170000      -3.50280000
O        1.09850000      -3.55180000      -3.82620000
H        0.68960000       2.16220000      -0.04590000
H       -0.81310000       1.89010000      -0.93890000
H       -0.83570000       1.94570000       0.83400000
H        0.50520000      -0.15710000       0.95230000
H       -0.98090000      -0.42660000       0.06570000
H        2.00010000      -0.68330000      -4.06930000
H        4.09710000      -3.24950000      -4.08060000
H        3.74160000      -3.59100000      -2.35840000
