12
Properties=species:S:1:pos:R:3 gdb_132209=T pbc="F F F"
N        0.10770000       1.30260000       0.11240000
C       -0.03700000      -0.03930000       0.03830000
N       -1.16640000      -0.63310000       0.01870000
C       -1.21610000      -2.04150000      -0.00590000
O       -2.26820000      -2.63980000      -0.01840000
C        0.09020000      -2.72740000      -0.02090000
C        1.19620000      -1.98800000      -0.00950000
F        2.42720000      -2.43600000      -0.02580000
O        1.20740000      -0.64050000       0.02110000
H        1.00090000       1.71280000      -0.09900000
H       -0.72390000       1.85060000      -0.02740000
H        0.13720000      -3.80600000      -0.04480000
