17
Properties=species:S:1:pos:R:3 gdb_87749=T pbc="F F F"
O        0.06040000       1.35580000       0.27810000
C        0.00220000      -0.03150000       0.12370000
C       -0.70160000      -0.88920000       1.17110000
C       -1.34280000      -0.60540000      -0.15140000
C       -2.61880000       0.14730000      -0.48480000
C       -2.75990000      -0.92010000      -1.60910000
O       -1.56380000      -1.61030000      -1.14010000
C       -3.94680000      -1.75510000      -1.59870000
C       -4.94040000      -2.43120000      -1.59130000
H        0.68410000       1.55340000       0.98510000
H        0.84530000      -0.49020000      -0.39370000
H       -0.31200000      -1.88720000       1.34350000
H       -1.11600000      -0.39050000       2.04210000
H       -3.40170000       0.09860000       0.27240000
H       -2.48390000       1.17440000      -0.82340000
H       -2.59170000      -0.51770000      -2.61530000
H       -5.81470000      -3.03430000      -1.58620000
