20
Properties=species:S:1:pos:R:3 gdb_59683=T pbc="F F F"
C       -0.12830000       1.51190000      -0.12840000
C        0.01230000      -0.00740000       0.03940000
C        0.85630000      -0.36860000       1.26940000
C       -1.36890000      -0.63990000       0.13400000
O       -2.21840000      -0.33440000      -0.99590000
C       -2.50960000      -1.71610000      -1.24380000
C       -1.54980000      -2.17800000      -0.11330000
C       -0.38570000      -2.93430000      -0.53930000
N        0.53500000      -3.54050000      -0.88900000
H        0.85420000       1.97530000      -0.25940000
H       -0.74390000       1.75330000      -0.99830000
H       -0.59530000       1.96350000       0.75500000
H        0.50160000      -0.41140000      -0.85600000
H        0.38970000       0.00490000       2.18880000
H        0.99490000      -1.44910000       1.36970000
H        1.84940000       0.08420000       1.19530000
H       -1.85540000      -0.33260000       1.07150000
H       -3.56180000      -1.96220000      -1.05920000
H       -2.23270000      -2.02730000      -2.25580000
H       -2.03870000      -2.70540000       0.70760000
