20
Properties=species:S:1:pos:R:3 gdb_59444=T pbc="F F F"
C       -2.23360000       0.55850000       0.62190000
C       -1.00410000      -0.30300000       0.31510000
N        0.00440000       0.37690000      -0.53260000
H        0.39060000       1.17960000      -0.04170000
H        1.00650000      -1.06330000      -0.70900000
H       -0.42310000       0.73120000      -1.38430000
C       -0.32000000      -0.77440000       1.58340000
C       -0.65100000      -2.11830000       2.18650000
C        0.70910000      -1.88220000       1.58100000
C        1.16450000      -2.67620000       0.36700000
O        1.43140000      -3.84730000       0.45500000
O        1.30350000      -2.01080000      -0.78450000
H       -1.95150000       1.45380000       1.18810000
H       -2.72790000       0.88250000      -0.30000000
H       -2.96160000      -0.00040000       1.21800000
H       -1.32500000      -1.18310000      -0.25540000
H       -0.12710000       0.03200000       2.28990000
H       -0.73110000      -2.20830000       3.26370000
H       -1.33190000      -2.75960000       1.63550000
H        1.52260000      -1.77470000       2.29300000
