20
Properties=species:S:1:pos:R:3 gdb_111262=T pbc="F F F"
C       -0.18680000       1.65990000      -0.13300000
C       -0.07120000       0.14100000       0.03670000
C        0.78590000      -0.50310000      -1.04230000
N        2.26240000      -0.16210000      -1.11240000
C        2.87130000      -0.75030000       0.07950000
C        2.61590000      -1.65600000      -1.08030000
C        3.68100000      -2.31680000      -1.90060000
C        1.15240000      -2.00450000      -1.06380000
O        0.53670000      -3.01640000      -1.24530000
H        0.79800000       2.13520000      -0.09570000
H       -0.64100000       1.91500000      -1.09650000
H       -0.80550000       2.09670000       0.65650000
H        0.31840000      -0.09380000       1.03340000
H       -1.06300000      -0.32420000      -0.01540000
H        0.36120000      -0.26950000      -2.02780000
H        3.90550000      -0.45310000       0.22980000
H        2.29880000      -0.85050000       0.99750000
H        4.58040000      -1.69610000      -1.93990000
H        3.95030000      -3.28390000      -1.46320000
H        3.33710000      -2.49510000      -2.92390000
