12
Properties=species:S:1:pos:R:3 gdb_21249=T pbc="F F F"
C        0.05480000       1.47850000      -0.02370000
O       -0.01380000       0.04560000      -0.00130000
C        0.55170000      -0.59550000      -1.01210000
C        0.64490000      -1.94210000      -1.26110000
O        0.17170000      -2.96520000      -0.51880000
N        1.31940000      -2.07950000      -2.42510000
N        1.64930000      -0.95590000      -2.91530000
O        1.15460000       0.05470000      -2.00140000
H        1.09490000       1.81640000      -0.01100000
H       -0.44610000       1.87600000      -0.91100000
H       -0.45940000       1.80740000       0.87850000
H        0.40580000      -3.78270000      -0.97380000
