16
Properties=species:S:1:pos:R:3 gdb_50443=T pbc="F F F"
O       -0.27010000       0.03710000       0.41320000
C       -0.06240000       1.20360000       0.23930000
N        1.17410000       1.84160000       0.03570000
C        1.06510000       3.30160000      -0.14650000
C        2.36150000       4.00670000      -0.36360000
C        3.53630000       3.39330000      -0.39630000
C        3.67260000       1.91730000      -0.21600000
C        2.38880000       1.12450000       0.01280000
O        2.43820000      -0.06930000       0.16570000
H       -0.87720000       1.95750000       0.21850000
H        0.39790000       3.50130000      -0.99740000
H        0.56390000       3.72950000       0.73370000
H        2.28210000       5.08130000      -0.49690000
H        4.44830000       3.96100000      -0.55860000
H        4.16280000       1.45590000      -1.08320000
H        4.32960000       1.68050000       0.63090000
