16
Properties=species:S:1:pos:R:3 gdb_125783=T pbc="F F F"
C       -0.01850000       1.52660000      -0.04490000
C       -0.00840000       0.03480000       0.04850000
N       -0.03720000      -0.68270000      -1.06040000
O       -0.01960000      -2.04390000      -0.66850000
C        0.01970000      -2.06440000       0.65800000
C        0.02950000      -0.81300000       1.19140000
C        0.07320000      -0.94620000       2.64890000
C        0.08860000      -2.25920000       2.95850000
C        0.05570000      -3.12970000       1.70420000
H        0.87640000       1.95280000       0.42060000
H       -0.05120000       1.83750000      -1.09070000
H       -0.88800000       1.94430000       0.47330000
H        0.09020000      -0.12910000       3.35780000
H        0.11990000      -2.68130000       3.95390000
H       -0.82280000      -3.78610000       1.67740000
H        0.93730000      -3.77780000       1.62540000
