16
Properties=species:S:1:pos:R:3 gdb_32552=T pbc="F F F"
C       -0.05780000       1.36770000      -0.05850000
O        0.00860000      -0.04280000       0.00770000
C        0.63910000      -0.58860000       1.06440000
C        1.21550000       0.10770000       2.07100000
N        1.83620000      -0.58720000       3.10580000
C        1.85200000      -1.94490000       3.08620000
N        1.32680000      -2.67320000       2.16590000
C        0.67470000      -2.06670000       1.07500000
N        0.13110000      -2.73060000       0.12590000
H        0.94480000       1.81540000      -0.10200000
H       -0.59930000       1.60540000      -0.97460000
H       -0.59820000       1.78530000       0.80230000
H        1.23570000       1.18430000       2.14200000
H        2.26950000      -0.08460000       3.86170000
H        2.35570000      -2.41510000       3.92910000
H        0.26610000      -3.72520000       0.32220000
