25
Properties=species:S:1:pos:R:3 gdb_119086=T pbc="F F F"
C       -0.84300000       1.71680000      -1.21740000
C       -1.20420000       0.24510000      -1.34540000
O       -1.06990000      -0.35080000      -0.06710000
C       -1.57280000      -1.66930000       0.06290000
C       -0.79060000      -2.68190000      -0.78530000
C        0.71940000      -2.66010000      -0.53250000
C       -1.69320000      -2.06580000       1.55850000
C       -3.11460000      -2.61980000       1.27420000
C       -3.12250000      -1.83350000      -0.06450000
H       -0.92230000       2.21690000      -2.18760000
H       -1.51200000       2.21610000      -0.51080000
H        0.18210000       1.82840000      -0.85240000
H       -2.23620000       0.13510000      -1.71390000
H       -0.54490000      -0.24220000      -2.08010000
H       -1.19170000      -3.68200000      -0.58010000
H       -0.99360000      -2.49420000      -1.84740000
H        1.23390000      -3.38330000      -1.17250000
H        1.13590000      -1.66890000      -0.73100000
H        0.95480000      -2.91020000       0.50710000
H       -0.94610000      -2.75480000       1.95990000
H       -1.71600000      -1.16550000       2.17650000
H       -3.12000000      -3.70220000       1.12200000
H       -3.89540000      -2.37330000       1.99630000
H       -3.61930000      -0.86520000       0.03870000
H       -3.50840000      -2.34170000      -0.95240000
