20
Properties=species:S:1:pos:R:3 gdb_22820=T pbc="F F F"
C       -0.15930000       1.50560000       0.11120000
C        0.03190000      -0.02070000       0.02250000
C        0.78530000      -0.44730000      -1.25260000
C        2.25260000       0.00740000      -1.24180000
C        2.91440000      -0.26570000       0.07920000
C        2.23670000      -0.53460000       1.20420000
C        0.77620000      -0.53930000       1.23950000
N        0.04990000      -0.91310000       2.23160000
O        0.81350000      -1.34730000       3.32730000
H        0.79750000       2.03120000       0.19190000
H       -0.67920000       1.88150000      -0.77680000
H       -0.75380000       1.76260000       0.99200000
H       -0.95940000      -0.48410000       0.02220000
H        0.75750000      -1.54090000      -1.32720000
H        0.27220000      -0.05410000      -2.13710000
H        2.80890000      -0.49170000      -2.04480000
H        2.32790000       1.08190000      -1.46680000
H        4.00140000      -0.24060000       0.10530000
H        2.75560000      -0.75120000       2.12950000
H        0.13120000      -1.57140000       3.96800000
