23
Properties=species:S:1:pos:R:3 gdb_93853=T pbc="F F F"
C        0.78460000       1.37990000      -0.45700000
C        0.06350000       0.17880000       0.15540000
O       -0.08370000      -0.86250000      -0.82180000
C        0.87750000      -1.88730000      -0.60420000
C        1.69140000      -1.50950000       0.64620000
O        2.91530000      -0.85540000       0.32340000
C        0.75480000      -0.50960000       1.36590000
C        1.49050000       0.44330000       2.31190000
C       -0.30850000      -1.30200000       2.15230000
H        1.81800000       1.13170000      -0.70770000
H        0.26200000       1.68130000      -1.36930000
H        0.78590000       2.23200000       0.23020000
H       -0.95410000       0.48300000       0.43280000
H        0.35680000      -2.84540000      -0.47100000
H        1.53670000      -1.98330000      -1.47910000
H        1.89350000      -2.38880000       1.27420000
H        3.44700000      -1.46130000      -0.20160000
H        2.30140000       0.97060000       1.81030000
H        0.79470000       1.18130000       2.72590000
H        1.92140000      -0.11020000       3.15320000
H        0.15490000      -1.93040000       2.92020000
H       -0.99660000      -0.61520000       2.65590000
H       -0.90370000      -1.94320000       1.49580000
