18
Properties=species:S:1:pos:R:3 gdb_89139=T pbc="F F F"
C       -0.18810000       1.50980000      -0.07780000
C        0.09520000       0.03220000       0.07670000
O        1.16990000      -0.47960000      -0.77900000
C        1.73160000      -1.19100000       0.31810000
C        2.26010000      -2.56490000       0.06690000
C        2.26840000      -0.22280000       1.35600000
C        2.85260000       1.05040000       1.03400000
N        3.35710000       2.06300000       0.79140000
C        0.77650000      -0.56590000       1.30770000
H        0.68360000       2.12360000       0.15030000
H       -0.49990000       1.71870000      -1.10600000
H       -1.00900000       1.79660000       0.58820000
H       -0.80950000      -0.55090000      -0.14030000
H        3.10030000      -2.52330000      -0.63430000
H        2.61180000      -3.02260000       0.99540000
H        1.48410000      -3.20130000      -0.36860000
H        2.76390000      -0.72050000       2.18580000
H        0.27940000      -0.97440000       2.17760000
