20
Properties=species:S:1:pos:R:3 gdb_20087=T pbc="F F F"
C       -0.06130000       1.53810000      -0.03270000
C        0.06060000       0.03210000       0.05570000
C        1.39430000      -0.65650000      -0.15760000
O        2.55240000       0.11720000      -0.30840000
C        0.77260000      -0.65740000       1.21390000
C        1.39510000       0.10110000       2.34410000
C        0.65610000       0.24920000       3.65280000
C        1.87120000      -0.64140000       3.56910000
H        0.88070000       2.03350000       0.21290000
H       -0.34420000       1.84660000      -1.04590000
H       -0.82750000       1.91610000       0.65210000
H       -0.80100000      -0.50520000      -0.33410000
H        1.40740000      -1.59340000      -0.71510000
H        2.53620000       0.50750000      -1.18850000
H        0.33450000      -1.60490000       1.52000000
H        2.00990000       0.93990000       2.04090000
H        0.73830000       1.18790000       4.18990000
H       -0.31480000      -0.22760000       3.74100000
H        1.71580000      -1.71510000       3.60270000
H        2.78810000      -0.31300000       4.04580000
