16
Properties=species:S:1:pos:R:3 gdb_66660=T pbc="F F F"
C        0.00440000       1.51420000       0.03530000
C       -0.01190000       0.02330000      -0.00050000
C        0.98270000      -0.99500000      -0.50280000
C        0.61800000      -0.99870000       0.95870000
C       -0.51290000      -2.00870000       0.61410000
C       -1.05380000      -3.12420000       1.29360000
C       -1.51100000      -4.05580000       1.90370000
C       -1.11540000      -1.01850000      -0.33560000
N       -0.11250000      -2.00120000      -0.85870000
H        0.99950000       1.88050000       0.30970000
H       -0.24950000       1.94150000      -0.94160000
H       -0.70780000       1.90630000       0.77030000
H        1.93070000      -0.91270000      -1.01920000
H        1.21060000      -0.83670000       1.84750000
H       -1.91380000      -4.88480000       2.43080000
H       -2.12380000      -0.95180000      -0.72830000
