19
Properties=species:S:1:pos:R:3 gdb_39532=T pbc="F F F"
C       -0.05960000       1.48850000      -0.01310000
C        1.37060000       1.99010000       0.07910000
C        2.25830000       0.99170000       0.06070000
C        1.59040000      -0.33380000       0.02130000
C        2.07840000      -1.62070000      -0.53580000
C        1.53050000      -2.66720000       0.08880000
C        0.62130000      -2.24370000       1.22880000
C        0.65040000      -0.71510000       1.17560000
C        0.08430000      -0.03440000      -0.03750000
H       -0.66880000       1.84040000       0.83050000
H       -0.55470000       1.85640000      -0.92160000
H        1.61240000       3.04200000       0.18000000
H        3.33530000       1.10570000       0.11380000
H        2.76060000      -1.67600000      -1.37680000
H        1.67450000      -3.70620000      -0.18480000
H       -0.39260000      -2.64980000       1.11210000
H        0.99010000      -2.61580000       2.19380000
H        0.69710000      -0.15510000       2.10420000
H       -0.54560000      -0.61380000      -0.70480000
