16
Properties=species:S:1:pos:R:3 gdb_86929=T pbc="F F F"
O        0.16510000       1.47070000      -0.08940000
C        0.09780000       0.08290000      -0.04320000
C       -1.26540000      -0.67760000       0.16180000
C       -0.81250000      -1.76320000      -0.84720000
O       -1.80700000      -2.18260000      -1.74890000
C       -1.39610000      -2.97010000      -2.77470000
N       -2.24200000      -3.38150000      -3.61220000
C        0.20070000      -0.70780000      -1.35600000
O        0.57770000      -0.41080000      -2.45310000
H       -0.07520000       1.75460000      -0.97960000
H        0.82920000      -0.26870000       0.69380000
H       -1.49680000      -1.00480000       1.17440000
H       -2.09930000      -0.10850000      -0.25510000
H       -0.32440000      -2.61390000      -0.35480000
H       -0.31940000      -3.17670000      -2.76630000
H       -1.78380000      -3.95670000      -4.31580000
