20
Properties=species:S:1:pos:R:3 gdb_12016=T pbc="F F F"
C        0.17640000       1.49630000      -0.00950000
C        0.03930000      -0.01430000       0.05270000
C       -1.19920000      -0.55170000      -0.64020000
C        1.29560000      -0.85550000      -0.01010000
C        0.51830000      -0.76490000       1.28200000
C        1.09980000      -0.08220000       2.48100000
C        2.40160000      -0.47350000       3.04380000
O        2.25860000       0.73620000       2.29630000
H        1.08010000       1.84510000       0.49320000
H        0.21610000       1.83250000      -1.05240000
H       -0.68470000       1.98890000       0.45870000
H       -1.20080000      -0.28240000      -1.70320000
H       -1.25740000      -1.64290000      -0.57370000
H       -2.11270000      -0.14000000      -0.19460000
H        1.27190000      -1.78900000      -0.56250000
H        2.24440000      -0.33040000      -0.03860000
H       -0.07700000      -1.63470000       1.55420000
H        0.37270000       0.35020000       3.17130000
H        2.59900000      -0.34220000       4.10670000
H        2.97550000      -1.25680000       2.55150000
