18
Properties=species:S:1:pos:R:3 gdb_67990=T pbc="F F F"
C       -0.02500000       1.48420000       0.07520000
C       -0.01390000      -0.01450000      -0.07470000
C        0.92410000      -0.65120000      -1.08920000
C        0.27770000      -2.01220000      -1.40910000
O        0.56690000      -2.74820000      -2.31390000
C       -0.77390000      -2.23340000      -0.33180000
C       -0.01580000      -2.18710000       1.02990000
N       -0.30220000      -0.72670000       1.21460000
C       -1.25770000      -0.81470000       0.05080000
H        0.94680000       1.84690000       0.42690000
H       -0.24300000       1.97100000      -0.88150000
H       -0.77960000       1.78980000       0.80430000
H        0.98720000      -0.04820000      -2.00090000
H        1.94970000      -0.79040000      -0.72870000
H       -1.46800000      -3.04830000      -0.52010000
H       -0.54270000      -2.74200000       1.80860000
H        1.04340000      -2.46840000       1.04440000
H       -2.27390000      -0.43840000       0.08300000
