15
Properties=species:S:1:pos:R:3 gdb_45157=T pbc="F F F"
O       -0.31800000       0.18010000       0.35180000
C       -0.08760000       1.29810000       0.03240000
O       -0.95230000       2.20430000      -0.55020000
C        0.09320000       3.21880000      -0.66210000
C        0.08770000       4.17820000       0.54780000
C        1.07400000       3.22380000       1.24600000
C        2.16210000       3.52830000       2.17570000
O        0.99180000       2.80550000       2.58640000
C        1.09900000       2.26380000       0.03800000
H        0.18420000       3.59310000      -1.67880000
H        0.50770000       5.16510000       0.33790000
H       -0.88750000       4.28700000       1.02560000
H        3.08180000       2.94600000       2.14390000
H        2.25600000       4.53430000       2.58250000
H        2.05090000       1.90980000      -0.35200000
