14
Properties=species:S:1:pos:R:3 gdb_128954=T pbc="F F F"
N       -0.06750000      -1.08270000      -0.00350000
C       -0.01180000       0.07030000       0.00280000
C        0.00420000       1.53350000       0.01170000
O        1.35810000       1.96330000      -0.00150000
C        1.51920000       3.30500000       0.00500000
N        0.49490000       4.14550000       0.02230000
N        1.08710000       5.36510000       0.02290000
C        2.43740000       5.29520000       0.00660000
C        2.77120000       3.95850000      -0.00560000
H       -0.53650000       1.91710000      -0.86220000
H       -0.51580000       1.90610000       0.90270000
H        0.50670000       6.18510000       0.03480000
H        3.05060000       6.18260000       0.00500000
H        3.75120000       3.51420000      -0.01990000
