19
Properties=species:S:1:pos:R:3 gdb_92545=T pbc="F F F"
O        0.05800000       1.38510000       0.32600000
C        0.05820000       0.00060000      -0.02140000
C        0.77050000      -0.86270000       1.02680000
C       -0.29110000      -1.06520000       2.10000000
O       -0.60170000       0.18070000       2.80400000
C       -2.00430000       0.07020000       2.42420000
C       -1.68120000      -1.03570000       1.41370000
C       -1.40520000      -0.53700000      -0.03630000
O       -2.30840000       0.43480000      -0.50350000
H       -0.03210000       1.41920000       1.29170000
H        0.51290000      -0.05980000      -1.01350000
H        1.04610000      -1.83550000       0.60170000
H        1.68090000      -0.39110000       1.40840000
H       -0.08120000      -1.87010000       2.81150000
H       -2.61310000      -0.25620000       3.27510000
H       -2.40570000       1.00480000       2.02320000
H       -2.30790000      -1.92650000       1.44410000
H       -1.46110000      -1.39960000      -0.71200000
H       -1.85260000       1.28000000      -0.36700000
