23
Properties=species:S:1:pos:R:3 gdb_88956=T pbc="F F F"
C        0.24490000       1.57680000       0.05970000
C       -0.02460000       0.08320000       0.07930000
C       -1.46740000      -0.32260000       0.35480000
C       -2.47810000       0.21630000      -0.64140000
C       -2.68520000      -0.45830000      -1.98630000
C       -3.75190000      -0.52850000      -0.92240000
O       -3.95540000      -1.72680000      -0.22710000
C        0.79790000      -0.78700000      -0.84210000
C        1.05730000      -0.80500000       0.64700000
H        1.31070000       1.78270000      -0.08100000
H       -0.29540000       2.07560000      -0.75250000
H       -0.06210000       2.04640000       1.00240000
H       -1.54520000      -1.41350000       0.38130000
H       -1.74700000       0.02480000       1.35980000
H       -2.58010000       1.29810000      -0.64340000
H       -2.85440000       0.14940000      -2.86880000
H       -2.12480000      -1.37000000      -2.16410000
H       -4.65530000       0.06390000      -1.06970000
H       -4.36120000      -2.35460000      -0.83350000
H        0.32830000      -1.65880000      -1.28450000
H        1.53050000      -0.30860000      -1.48400000
H        1.96480000      -0.33640000       1.01400000
H        0.75860000      -1.68660000       1.20510000
