14
Properties=species:S:1:pos:R:3 gdb_82695=T pbc="F F F"
O        0.13700000       1.41620000       0.06010000
C        0.01770000       0.03870000       0.01050000
C        0.20750000      -0.75520000       1.33170000
O       -0.75320000      -0.09600000       2.21810000
C       -1.76990000      -0.74630000       1.46290000
C       -0.88470000      -1.77290000       0.86600000
C       -1.38060000      -0.62210000      -0.03560000
C       -2.32390000      -0.66650000      -1.09550000
N       -3.09240000      -0.70050000      -1.96120000
H       -0.28190000       1.69450000       0.88650000
H        0.64930000      -0.34380000      -0.79370000
H        1.17310000      -0.94220000       1.79260000
H       -2.78980000      -0.75690000       1.82080000
H       -0.93670000      -2.84310000       0.73550000
