21
Properties=species:S:1:pos:R:3 gdb_42113=T pbc="F F F"
C        0.00300000       1.54650000       0.14350000
C        1.43530000       2.10220000      -0.03330000
O        1.74650000       2.67970000      -1.28800000
C        1.60840000       1.83410000      -2.42060000
C        2.36670000       0.53470000      -2.34490000
C        1.79200000      -0.67370000      -2.34210000
C        0.33790000      -0.91270000      -2.32850000
C       -0.50320000      -0.56740000      -1.34780000
C       -0.14210000       0.00400000       0.00260000
H       -0.31150000       1.80900000       1.16010000
H       -0.68070000       2.07600000      -0.52900000
H        1.59270000       2.92190000       0.67450000
H        2.15920000       1.31100000       0.21740000
H        0.55060000       1.62810000      -2.62480000
H        1.99730000       2.43160000      -3.25390000
H        3.45240000       0.60820000      -2.34870000
H        2.43030000      -1.55570000      -2.40570000
H       -0.06890000      -1.42690000      -3.19960000
H       -1.56130000      -0.77320000      -1.50120000
H        0.79360000      -0.45130000       0.34840000
H       -0.91630000      -0.32410000       0.70510000
