16
Properties=species:S:1:pos:R:3 gdb_127674=T pbc="F F F"
C       -0.40960000       1.32000000       0.08090000
N        0.00210000      -0.06020000      -0.04280000
N        0.37070000      -0.58820000      -1.25550000
C        0.66420000      -1.83210000      -0.93800000
N        0.51880000      -2.16090000       0.37710000
C        0.10210000      -1.02130000       0.90260000
N       -0.19920000      -0.80170000       2.22480000
C       -0.10610000      -1.76520000       3.21200000
N       -0.40570000      -1.47360000       4.41230000
H       -0.35440000       1.76230000      -0.91280000
H       -1.43940000       1.39520000       0.44720000
H        0.25460000       1.87300000       0.75410000
H        0.99860000      -2.54060000      -1.68110000
H       -0.51090000       0.10950000       2.52610000
H        0.23570000      -2.72560000       2.82080000
H       -0.28520000      -2.28600000       5.01290000
