21
Properties=species:S:1:pos:R:3 gdb_78392=T pbc="F F F"
C       -0.02720000       1.47390000       0.00720000
C       -0.01170000      -0.04130000      -0.00140000
C        1.33890000      -0.67940000      -0.21530000
C        0.69760000      -0.69350000       1.16240000
C        0.72420000      -2.24410000       1.17600000
C        1.37780000      -2.23000000      -0.22860000
C        0.10010000      -2.97020000       0.00900000
C        0.26220000      -4.48180000       0.07020000
O       -1.10080000      -2.60880000      -0.63240000
H        0.89190000       1.88150000       0.44360000
H       -0.11760000       1.87150000      -1.00940000
H       -0.87060000       1.85600000       0.59280000
H       -0.88840000      -0.50660000      -0.42720000
H        2.19330000      -0.09930000      -0.54210000
H        0.99150000      -0.12240000       2.03480000
H        1.04970000      -2.79180000       2.05380000
H        2.26500000      -2.76140000      -0.55530000
H        1.21470000      -4.77230000       0.52210000
H       -0.54210000      -4.92940000       0.66630000
H        0.20990000      -4.90200000      -0.93860000
H       -1.82530000      -2.85540000      -0.04570000
