16
Properties=species:S:1:pos:R:3 gdb_62464=T pbc="F F F"
O       -0.03160000       1.34240000      -0.00410000
C       -0.01530000      -0.04570000       0.01230000
C        1.07810000      -0.62700000       0.75200000
N        1.94140000      -1.12690000       1.33760000
C       -1.34680000      -0.81390000       0.00680000
C       -2.57770000       0.03970000      -0.28810000
C       -2.47150000       0.28910000      -1.80810000
O       -1.08410000       0.09380000      -2.16280000
C       -0.50970000      -0.77880000      -1.23400000
H       -0.05080000       1.60030000      -0.93740000
H       -1.42420000      -1.70420000       0.61750000
H       -3.49530000      -0.49180000      -0.02830000
H       -2.54730000       0.97670000       0.27310000
H       -3.08490000      -0.42350000      -2.37430000
H       -2.74510000       1.30310000      -2.10800000
H        0.03580000      -1.61790000      -1.65080000
