21
Properties=species:S:1:pos:R:3 gdb_107566=T pbc="F F F"
C       -0.42950000       1.38870000       0.05590000
C        0.34780000       0.07710000      -0.11520000
C        0.92030000      -0.45630000       1.18560000
C        1.95080000       0.41530000       1.88470000
C        2.75630000      -0.29140000       2.93930000
C        2.73220000      -1.60260000       3.15960000
C        1.89120000      -2.57240000       2.37870000
C        0.90060000      -1.90550000       1.45290000
O       -0.06030000      -1.03690000       2.06560000
H        0.21690000       2.20580000       0.39100000
H       -0.88450000       1.69590000      -0.89030000
H       -1.22870000       1.26510000       0.79300000
H       -0.31810000      -0.68600000      -0.53260000
H        1.16430000       0.21510000      -0.83590000
H        2.62810000       0.83650000       1.12690000
H        1.44170000       1.28120000       2.33000000
H        3.39910000       0.34090000       3.54700000
H        3.35410000      -2.02670000       3.94390000
H        2.53720000      -3.23340000       1.78170000
H        1.34670000      -3.23900000       3.06260000
H        0.47620000      -2.55660000       0.68620000
