24
Properties=species:S:1:pos:R:3 gdb_123089=T pbc="F F F"
C        0.05320000       1.58820000      -0.05010000
C        0.02460000       0.05960000       0.03200000
C       -1.39250000      -0.52130000      -0.02030000
C       -1.43120000      -2.05100000       0.06070000
C       -2.85170000      -2.62120000       0.01400000
C       -2.88850000      -4.14900000       0.09160000
C       -4.31110000      -4.69630000       0.20120000
N       -4.47160000      -5.97310000      -0.26180000
O       -5.23420000      -4.05790000       0.66830000
H        1.07720000       1.97300000      -0.01000000
H       -0.39950000       1.94300000      -0.98280000
H       -0.50460000       2.03940000       0.77820000
H        0.61930000      -0.36290000      -0.78900000
H        0.51520000      -0.26690000       0.95880000
H       -1.98870000      -0.10000000       0.80090000
H       -1.88460000      -0.19420000      -0.94700000
H       -0.83580000      -2.47240000      -0.76200000
H       -0.93740000      -2.37790000       0.98700000
H       -3.45240000      -2.22130000       0.83710000
H       -3.35120000      -2.29520000      -0.90700000
H       -2.37630000      -4.59860000      -0.76840000
H       -2.34250000      -4.48900000       0.98330000
H       -3.69400000      -6.53400000      -0.56210000
H       -5.36070000      -6.42190000      -0.11320000
