14
Properties=species:S:1:pos:R:3 gdb_49144=T pbc="F F F"
O       -0.89950000       1.27320000      -0.08050000
C        0.23070000       0.86830000      -0.19630000
C        1.40930000       1.77580000      -0.10620000
N        2.61420000       1.32990000      -0.14560000
C        3.47030000       2.53380000      -0.02070000
C        2.51490000       3.69740000       0.41510000
N        1.22540000       3.12950000       0.01800000
C        4.58200000       2.32680000       0.90870000
N        5.45790000       2.19990000       1.65060000
H        0.48850000      -0.19430000      -0.35660000
H        3.89770000       2.74600000      -1.01010000
H        2.57080000       3.87620000       1.49590000
H        2.73280000       4.62990000      -0.10880000
H        0.35710000       3.46180000       0.41130000
