25
Properties=species:S:1:pos:R:3 gdb_110857=T pbc="F F F"
C        0.00490000       1.66460000      -0.58590000
C        0.10930000       0.19460000      -0.15930000
C       -1.24640000      -0.49070000      -0.16360000
C       -1.88920000      -1.16610000      -1.34790000
C       -0.87080000      -2.00480000      -2.13230000
C       -0.63100000      -2.87750000      -0.85460000
C        0.77650000      -3.18380000      -0.34990000
C       -1.58400000      -1.96000000      -0.06070000
C       -2.51950000      -2.48430000       0.99500000
H        0.98420000       2.15340000      -0.57530000
H       -0.40460000       1.75090000      -1.59800000
H       -0.65500000       2.22570000       0.08540000
H        0.80880000      -0.31850000      -0.82460000
H        0.54580000       0.13520000       0.84650000
H       -1.98240000       0.09090000       0.39440000
H       -2.85340000      -0.85210000      -1.73270000
H       -1.31210000      -2.57230000      -2.95450000
H       -0.00290000      -1.46300000      -2.52400000
H       -1.15070000      -3.83200000      -1.00270000
H        1.37300000      -2.28220000      -0.19250000
H        0.73730000      -3.72370000       0.60330000
H        1.31420000      -3.81890000      -1.06330000
H       -1.98310000      -2.72990000       1.92050000
H       -3.28810000      -1.74710000       1.25050000
H       -3.02890000      -3.39600000       0.65970000
