18
Properties=species:S:1:pos:R:3 gdb_18346=T pbc="F F F"
C        0.24510000       1.39920000       0.08870000
C       -0.00030000      -0.07290000      -0.00280000
C       -0.01460000      -0.84300000      -1.09520000
C       -0.27410000      -2.30580000      -0.81250000
C       -0.28510000      -2.36530000       0.72600000
C        1.07300000      -2.49310000       1.45300000
O        0.97870000      -1.15800000       1.99760000
C       -0.23460000      -0.90480000       1.23540000
H        1.10310000       1.60230000       0.74060000
H        0.44400000       1.84210000      -0.89090000
H       -0.61490000       1.91850000       0.53080000
H        0.14440000      -0.47310000      -2.10400000
H       -1.22790000      -2.63810000      -1.24350000
H        0.49740000      -2.95590000      -1.24670000
H       -1.06940000      -3.00050000       1.13760000
H        1.12900000      -3.24690000       2.24700000
H        1.93990000      -2.60950000       0.78850000
H       -1.02540000      -0.51790000       1.89010000
