19
Properties=species:S:1:pos:R:3 gdb_17460=T pbc="F F F"
C       -0.06880000       1.50830000       0.03330000
C        0.00960000      -0.00070000      -0.00310000
C       -0.82950000      -0.81510000       0.94950000
C        0.67680000      -0.82360000       1.08560000
C        1.49450000      -1.89500000       0.40340000
C        0.83480000      -2.95290000      -0.40440000
N        1.37780000      -1.75960000      -1.06710000
C        0.41400000      -0.66500000      -1.33080000
H        0.86620000       1.96490000      -0.31170000
H       -0.87660000       1.88200000      -0.60740000
H       -0.26490000       1.86800000       1.04840000
H       -1.38000000      -0.26370000       1.70650000
H       -1.34860000      -1.70070000       0.60190000
H        1.11590000      -0.34800000       1.95570000
H        2.49390000      -2.06480000       0.79560000
H        1.36690000      -3.87330000      -0.63380000
H       -0.24190000      -3.07710000      -0.33170000
H       -0.44360000      -1.04020000      -1.90190000
H        0.92190000       0.07440000      -1.96000000
