20
Properties=species:S:1:pos:R:3 gdb_107073=T pbc="F F F"
C        0.18220000       1.50060000       0.24000000
C       -0.13300000       0.02580000      -0.04440000
C        0.51420000      -0.46620000      -1.30740000
C        0.08930000      -0.10180000      -2.74210000
C        0.52100000      -1.54600000      -3.20850000
C        1.55120000      -1.65430000      -4.22500000
C        2.43010000      -1.71570000      -5.04450000
C        0.94340000      -1.83810000      -1.74650000
N        1.91910000      -0.86800000      -1.27540000
H        1.26150000       1.64990000       0.34200000
H       -0.17250000       2.14830000      -0.56930000
H       -0.29610000       1.83360000       1.16580000
H        0.21830000      -0.59430000       0.78720000
H       -1.21910000      -0.11650000      -0.11600000
H       -0.98650000       0.05170000      -2.85710000
H        0.62110000       0.73400000      -3.20560000
H       -0.35860000      -2.13130000      -3.49260000
H        3.19700000      -1.78410000      -5.77580000
H        0.88410000      -2.80290000      -1.25490000
H        2.48200000      -0.48240000      -2.03250000
