23
Properties=species:S:1:pos:R:3 gdb_58695=T pbc="F F F"
C        0.10020000       1.50000000       0.17040000
C       -0.06630000      -0.01200000      -0.02560000
C       -1.54610000      -0.41310000      -0.06640000
C        0.69980000      -0.51710000      -1.27010000
C        2.27010000      -0.43740000      -1.20500000
C        2.34810000      -1.87160000      -1.78490000
C        0.85970000      -2.07650000      -1.40800000
C        0.19070000       0.07360000      -2.50190000
C       -0.22270000       0.55590000      -3.52440000
H        1.15580000       1.78300000       0.23740000
H       -0.34240000       2.05170000      -0.66510000
H       -0.39290000       1.82690000       1.09150000
H        0.39950000      -0.51880000       0.83140000
H       -2.05470000       0.06170000      -0.91150000
H       -1.66630000      -1.49660000      -0.16830000
H       -2.05550000      -0.10490000       0.85220000
H        2.74760000       0.36780000      -1.76520000
H        2.60410000      -0.39530000      -0.16370000
H        2.49270000      -1.86190000      -2.86790000
H        3.07660000      -2.55340000      -1.34120000
H        0.74430000      -2.55660000      -0.43140000
H        0.21320000      -2.57760000      -2.13000000
H       -0.58720000       0.98150000      -4.42630000
