17
Properties=species:S:1:pos:R:3 gdb_69167=T pbc="F F F"
C       -0.08090000       1.52020000       0.07900000
C        0.11830000       0.04400000       0.00250000
O       -0.72650000      -0.84500000       0.72160000
C        0.69560000      -0.91320000       0.99480000
C        1.26710000      -1.73420000      -0.14090000
O        2.09170000      -2.59570000      -0.24280000
C        0.61840000      -0.77900000      -1.21210000
C       -0.40830000      -1.32450000      -2.18510000
O        1.66660000      -0.06750000      -1.84830000
H        0.80190000       2.03080000      -0.31350000
H       -0.94550000       1.82270000      -0.52150000
H       -0.25350000       1.83380000       1.11150000
H        1.01590000      -0.77390000       2.02070000
H       -1.25750000      -1.75370000      -1.64840000
H       -0.76170000      -0.52830000      -2.84790000
H        0.03940000      -2.10990000      -2.80380000
H        2.24840000      -0.71360000      -2.26630000
