14
Properties=species:S:1:pos:R:3 gdb_5187=T pbc="F F F"
N       -0.03290000       1.29870000       0.13270000
C       -0.13930000       0.08690000      -0.19750000
O       -1.04290000      -0.70300000       0.43220000
C       -0.97790000      -2.05550000       0.20030000
C        0.13960000      -2.86120000       0.24110000
N       -0.29320000      -4.14090000      -0.01400000
C       -1.64940000      -4.15320000      -0.20120000
C       -2.11080000      -2.86320000      -0.07600000
H        0.66040000       1.75610000      -0.45580000
H        0.42020000      -0.44860000      -0.97470000
H        1.17170000      -2.63760000       0.45150000
H        0.30160000      -4.94940000      -0.04530000
H       -2.17360000      -5.07120000      -0.41070000
H       -3.12950000      -2.52350000      -0.16890000
