27
Properties=species:S:1:pos:R:3 gdb_58580=T pbc="F F F"
C       -0.02270000       1.59480000      -0.10000000
C        0.09440000       0.06210000      -0.11140000
C        0.86360000      -0.39460000      -1.36150000
C        0.65280000      -0.52950000       1.21390000
C        2.09610000      -0.06700000       1.49750000
C       -0.25860000      -0.18590000       2.42150000
C        0.01510000      -1.27080000       3.48750000
C        0.56280000      -2.50050000       2.70800000
C        0.58410000      -2.07940000       1.22130000
H        0.96060000       2.07620000      -0.06520000
H       -0.52070000       1.94450000      -1.01070000
H       -0.60350000       1.95570000       0.75350000
H       -0.92720000      -0.33660000      -0.20040000
H        1.88330000       0.00490000      -1.37840000
H        0.92880000      -1.48430000      -1.42790000
H        0.36240000      -0.03740000      -2.26750000
H        2.16040000       1.02150000       1.59110000
H        2.47180000      -0.49270000       2.43320000
H        2.78310000      -0.37760000       0.70430000
H       -0.09040000       0.82450000       2.80600000
H       -1.30690000      -0.23430000       2.10040000
H        0.75010000      -0.92020000       4.21820000
H       -0.88930000      -1.51020000       4.05390000
H        1.56890000      -2.75740000       3.05290000
H       -0.05040000      -3.39300000       2.86080000
H       -0.34500000      -2.39600000       0.73040000
H        1.40820000      -2.54330000       0.67100000
