20
Properties=species:S:1:pos:R:3 gdb_114186=T pbc="F F F"
C       -0.23510000       1.56240000      -0.06950000
C        0.20250000       0.09550000      -0.02070000
N        0.82020000      -0.36070000      -1.24270000
C        0.29080000      -0.60560000      -2.59340000
C        1.69900000      -1.11470000      -2.94930000
C        2.12960000      -2.29280000      -3.77330000
C        2.53720000      -0.89880000      -4.17490000
C        2.09050000      -0.82430000      -1.51230000
O        3.07790000      -0.93740000      -0.83000000
H        0.62120000       2.21620000      -0.25830000
H       -0.97420000       1.73070000      -0.85950000
H       -0.69070000       1.85480000       0.88160000
H        0.94850000      -0.05610000       0.76590000
H       -0.65850000      -0.54470000       0.21860000
H       -0.50600000      -1.35890000      -2.62590000
H       -0.03570000       0.29830000      -3.11990000
H        2.88260000      -2.94370000      -3.34170000
H        1.37550000      -2.79740000      -4.36810000
H        2.05960000      -0.45610000      -5.04270000
H        3.56840000      -0.59990000      -4.01900000
