24
Properties=species:S:1:pos:R:3 gdb_101244=T pbc="F F F"
C       -1.10840000       2.09100000       1.28330000
C       -0.73420000       1.29650000       0.03020000
C        0.71000000       0.77330000       0.10030000
O        0.88050000      -0.13580000       1.16860000
N       -1.59610000       0.11320000      -0.06830000
C       -2.99180000       0.26600000      -0.46410000
C       -2.03130000      -0.45070000      -1.35710000
C       -1.64070000       0.19020000      -2.67710000
C       -2.04150000      -1.96720000      -1.38830000
H       -0.49640000       2.99550000       1.35460000
H       -2.15960000       2.39300000       1.26040000
H       -0.93640000       1.48830000       2.17820000
H       -0.82070000       1.95680000      -0.84740000
H        0.97090000       0.30750000      -0.86500000
H        1.40460000       1.60490000       0.26260000
H        0.08990000      -0.69330000       1.14480000
H       -3.72270000      -0.28140000       0.12720000
H       -3.32200000       1.25440000      -0.78310000
H       -1.71970000       1.27890000      -2.66120000
H       -0.61480000      -0.07530000      -2.95740000
H       -2.30120000      -0.17430000      -3.47100000
H       -2.76710000      -2.33770000      -2.12120000
H       -1.05610000      -2.35830000      -1.66750000
H       -2.30080000      -2.37110000      -0.40680000
