15
Properties=species:S:1:pos:R:3 gdb_49043=T pbc="F F F"
N        0.11080000       1.11940000      -0.64160000
C        0.07360000      -0.07640000      -0.24890000
N        0.98430000      -1.08250000       0.09040000
C       -0.03010000      -2.03800000       0.53120000
C       -0.61610000      -1.81460000       1.94160000
O       -1.55480000      -0.82460000       1.45230000
C       -1.11200000      -1.00370000       0.09170000
C       -2.23030000      -1.21950000      -0.88780000
O       -2.08190000      -1.76250000      -1.95110000
H        1.06470000       1.47950000      -0.70300000
H        1.90780000      -0.95600000       0.48300000
H        0.06690000      -3.04920000       0.13970000
H       -1.14320000      -2.68200000       2.35550000
H        0.07270000      -1.40640000       2.68900000
H       -3.21390000      -0.84200000      -0.53430000
