18
Properties=species:S:1:pos:R:3 gdb_119944=T pbc="F F F"
C       -0.45090000       1.33640000      -0.45460000
O       -0.50310000      -0.07060000      -0.51210000
C       -0.91990000      -0.64830000       0.70550000
C       -0.97760000      -2.14060000       0.50640000
C       -1.86830000      -2.99920000       1.34140000
O       -2.62980000      -2.35810000       2.30800000
C       -2.20460000      -2.79150000      -0.14010000
C       -3.35710000      -2.00540000      -0.46630000
N       -4.31140000      -1.39750000      -0.70990000
H       -0.12660000       1.68980000      -1.43600000
H       -1.43620000       1.77080000      -0.22680000
H        0.26540000       1.68820000       0.30510000
H       -0.20530000      -0.41400000       1.51310000
H       -1.89910000      -0.25950000       1.01570000
H       -0.03510000      -2.58090000       0.19660000
H       -1.51450000      -3.99440000       1.60920000
H       -3.52350000      -2.71900000       2.29460000
H       -2.02560000      -3.62280000      -0.81330000
