19
Properties=species:S:1:pos:R:3 gdb_66551=T pbc="F F F"
C        0.00470000       1.47660000       0.05990000
C        0.00090000      -0.02040000      -0.00900000
C       -0.94450000      -0.89910000       0.81300000
C        0.55110000      -1.04410000       0.95240000
C        0.44760000      -2.06850000      -0.23270000
C       -1.09490000      -2.21200000      -0.02140000
C       -1.71160000      -1.99740000      -1.38060000
C       -0.88360000      -1.23370000      -2.10670000
C        0.32280000      -0.90530000      -1.26500000
H        0.96750000       1.88970000      -0.26290000
H       -0.77420000       1.90460000      -0.58290000
H       -0.17970000       1.82840000       1.08080000
H       -1.65520000      -0.46670000       1.50620000
H        1.21080000      -0.96210000       1.80400000
H        1.08090000      -2.93430000      -0.42240000
H       -1.43410000      -3.06820000       0.56250000
H       -2.70010000      -2.33430000      -1.67040000
H       -1.07460000      -0.83660000      -3.09680000
H        1.23620000      -0.60360000      -1.78030000
