21
Properties=species:S:1:pos:R:3 gdb_59120=T pbc="F F F"
C        0.03120000       1.56230000       0.04150000
C        0.01640000       0.02850000      -0.01330000
C        0.77310000      -0.57500000       1.17820000
C       -1.41490000      -0.50290000      -0.07320000
C       -2.32420000      -0.20930000      -1.27480000
C       -2.02980000      -1.34610000      -2.27150000
O       -0.98940000      -2.15850000      -1.72740000
C       -1.66090000      -1.99810000      -0.44280000
C       -2.99450000      -1.57640000      -1.16250000
H        1.05720000       1.94500000       0.04780000
H       -0.48250000       2.00120000      -0.82000000
H       -0.46410000       1.93040000       0.94860000
H        0.51590000      -0.29170000      -0.93490000
H        0.80180000      -1.66820000       1.12510000
H        1.80780000      -0.21820000       1.20870000
H        0.29930000      -0.29760000       2.12800000
H       -1.95820000      -0.27420000       0.85260000
H       -2.77350000       0.72800000      -1.57740000
H       -2.14290000      -1.28190000      -3.34540000
H       -1.48610000      -2.82550000       0.24140000
H       -4.02590000      -1.89350000      -1.10760000
