20
Properties=species:S:1:pos:R:3 gdb_117902=T pbc="F F F"
C        0.05820000       1.53600000       0.01030000
C        0.04730000       0.00680000      -0.05430000
C       -1.37710000      -0.55890000       0.03220000
N       -1.43210000      -2.01860000       0.00250000
C       -1.30760000      -2.72250000       1.26490000
C       -1.43760000      -2.63850000      -1.21220000
N       -1.39710000      -1.98940000      -2.32200000
C       -1.51360000      -4.09340000      -1.19560000
N       -1.57130000      -5.24630000      -1.27240000
H        1.07850000       1.92530000      -0.05000000
H       -0.51310000       1.97040000      -0.81700000
H       -0.38180000       1.90060000       0.94560000
H        0.49560000      -0.33420000      -0.99260000
H        0.65550000      -0.40390000       0.76150000
H       -1.85900000      -0.23390000       0.96180000
H       -1.97020000      -0.18720000      -0.80740000
H       -1.39080000      -3.79890000       1.11260000
H       -0.34130000      -2.51840000       1.74380000
H       -2.10220000      -2.40920000       1.95200000
H       -1.45990000      -2.62100000      -3.11550000
