21
Properties=species:S:1:pos:R:3 gdb_82054=T pbc="F F F"
O        0.19820000       1.37450000      -0.17150000
C        0.03440000      -0.01300000       0.00920000
C        0.32600000      -0.62660000       1.37560000
C       -0.71960000      -0.21800000       2.38350000
C       -1.05970000      -1.28350000       1.38380000
C       -1.41530000      -0.64120000       0.04590000
C       -2.63840000       0.28080000      -0.19460000
C       -2.74820000      -0.30160000      -1.63030000
C       -1.83780000      -1.47820000      -1.18640000
H       -0.06640000       1.81210000       0.64450000
H        0.62380000      -0.48640000      -0.78180000
H        1.27950000      -1.03300000       1.69140000
H       -0.52940000      -0.55680000       3.39670000
H       -1.21260000       0.75180000       2.33750000
H       -1.32070000      -2.29290000       1.67940000
H       -3.48840000       0.00760000       0.43840000
H       -2.46300000       1.35670000      -0.11190000
H       -3.74600000      -0.55100000      -1.99810000
H       -2.25630000       0.34110000      -2.36470000
H       -1.04450000      -1.80120000      -1.86790000
H       -2.42090000      -2.35810000      -0.89460000
