19
Properties=species:S:1:pos:R:3 gdb_36892=T pbc="F F F"
C       -0.24560000       1.63120000      -0.01050000
C       -0.24640000       0.16990000       0.37230000
C       -1.24040000      -0.77890000      -0.14100000
O        0.08890000      -0.75980000      -0.66540000
C        1.16720000       2.15790000      -0.16780000
C        1.55630000       3.62580000      -0.22410000
C        0.76470000       4.42270000       0.80670000
O        1.10550000       3.48100000       1.86040000
C        1.95360000       2.76300000       0.95590000
H       -0.80200000       1.75590000      -0.94660000
H       -0.76680000       2.19700000       0.76890000
H        0.22370000      -0.05800000       1.33060000
H       -1.50270000      -1.66200000       0.44030000
H       -2.01560000      -0.42610000      -0.82070000
H        1.78830000       1.55940000      -0.83160000
H        2.15200000       4.04600000      -1.02310000
H        1.20150000       5.40440000       1.02070000
H       -0.31820000       4.52460000       0.66780000
H        2.90960000       2.41640000       1.33190000
