21
Properties=species:S:1:pos:R:3 gdb_26655=T pbc="F F F"
C       -0.04590000       1.48730000       0.11740000
C       -0.00700000       0.00100000      -0.02450000
C        0.07470000      -0.81510000      -1.13310000
C        0.15860000      -0.40730000      -2.57220000
C        0.05890000      -2.17130000      -0.65820000
N        0.12260000      -3.37610000      -1.42460000
C       -0.03230000      -2.14490000       0.71580000
C       -0.08600000      -3.26680000       1.69470000
N       -0.06460000      -0.81950000       1.08390000
H        0.08730000       1.96740000      -0.85450000
H       -1.00060000       1.84310000       0.52750000
H        0.74860000       1.85990000       0.77700000
H        0.99880000      -0.89620000      -3.08120000
H       -0.74650000      -0.67530000      -3.13380000
H        0.29520000       0.67210000      -2.68270000
H       -0.48820000      -3.32060000      -2.23410000
H        1.05870000      -3.53270000      -1.78910000
H        0.80400000      -3.31260000       2.33630000
H       -0.95970000      -3.19930000       2.35570000
H       -0.14980000      -4.20560000       1.14010000
H       -0.12960000      -0.49160000       2.03190000
