16
Properties=species:S:1:pos:R:3 gdb_43120=T pbc="F F F"
O       -0.00560000       0.00240000      -0.07140000
C       -0.02650000       1.19080000       0.03510000
C       -1.08980000       2.30490000       0.03250000
N       -0.82270000       2.87630000       1.37440000
C        0.63670000       3.21060000       1.22610000
C        0.73870000       4.61020000       0.62450000
O        0.05290000       4.47030000      -0.63080000
C       -0.05130000       3.08460000      -0.87980000
C        1.00110000       2.31780000       0.00050000
H       -2.13870000       2.14630000      -0.20460000
H       -1.35090000       3.73840000       1.48610000
H        1.20810000       3.04290000       2.13960000
H        0.22820000       5.36700000       1.23160000
H        1.77800000       4.93260000       0.46000000
H       -0.07880000       2.88190000      -1.94910000
H        2.04980000       2.19590000      -0.25680000
