16
Properties=species:S:1:pos:R:3 gdb_11316=T pbc="F F F"
O       -0.05110000       1.45850000       0.01210000
C        0.04220000       0.04030000      -0.02430000
C       -1.37920000      -0.56320000      -0.05720000
C       -1.29490000      -1.79490000      -0.99010000
C       -0.05290000      -1.51330000      -1.80690000
C        0.31540000      -2.26540000      -3.01090000
O       -0.32900000      -3.18800000      -3.45870000
C        0.67110000      -0.51450000      -1.28430000
H        0.81710000       1.81740000       0.22040000
H        0.60480000      -0.31990000       0.85390000
H       -1.76080000      -0.79640000       0.93870000
H       -2.03140000       0.19900000      -0.49460000
H       -1.17340000      -2.72810000      -0.42640000
H       -2.17990000      -1.93050000      -1.61770000
H        1.25200000      -1.92260000      -3.50530000
H        1.61240000      -0.14830000      -1.68350000
