22
Properties=species:S:1:pos:R:3 gdb_73565=T pbc="F F F"
C        0.13080000       1.53000000      -0.04710000
C       -0.02310000       0.01410000      -0.00700000
C       -1.42510000      -0.47830000      -0.42010000
C       -1.76850000      -1.68870000       0.49040000
C       -0.84040000      -1.58730000       1.73460000
C        0.32640000      -0.66830000       1.34680000
N        1.61300000      -1.26080000       0.79550000
C        1.26860000      -2.15490000      -0.32460000
C        1.22090000      -0.70180000      -0.56690000
H        1.12380000       1.83660000       0.29780000
H       -0.00110000       1.91370000      -1.06590000
H       -0.61540000       2.01680000       0.59050000
H       -2.14810000       0.32910000      -0.25520000
H       -1.47900000      -0.73560000      -1.48280000
H       -2.82420000      -1.68560000       0.77780000
H       -1.60680000      -2.63040000      -0.04180000
H       -1.38220000      -1.13160000       2.57030000
H       -0.49620000      -2.56660000       2.08220000
H        0.60400000       0.01440000       2.15270000
H        2.14130000      -2.68040000      -0.70320000
H        0.37390000      -2.76450000      -0.29270000
H        1.95610000      -0.20720000      -1.19710000
