15
Properties=species:S:1:pos:R:3 gdb_45771=T pbc="F F F"
O       -0.13780000       0.00750000      -0.53650000
C       -0.12350000       1.17630000      -0.23350000
C       -1.25520000       2.19970000      -0.11160000
N       -0.63660000       3.46520000       0.29470000
C        0.61290000       3.22200000       0.38920000
N        1.01080000       1.91830000       0.09660000
C        2.35430000       1.36140000       0.12260000
C        3.04840000       1.59990000       1.38430000
C        3.62490000       1.81900000       2.41470000
H       -1.78060000       2.30830000      -1.06650000
H       -1.99550000       1.87090000       0.62570000
H        1.36110000       3.95030000       0.68350000
H        2.22670000       0.28810000      -0.06060000
H        2.94760000       1.76200000      -0.70970000
H        4.13440000       1.99770000       3.32960000
