21
Properties=species:S:1:pos:R:3 gdb_58440=T pbc="F F F"
C        0.69370000      -0.04800000      -1.24650000
C        0.00560000       0.10490000       0.11680000
C        0.05070000       1.56050000       0.61000000
C       -1.42920000      -0.39580000       0.06010000
O       -2.29750000       0.34910000      -0.76260000
C       -1.83590000      -1.85450000      -0.01430000
C       -0.98940000      -2.69960000       0.92720000
O       -1.24980000      -1.79780000       2.04130000
C       -2.14000000      -1.03150000       1.22620000
H        1.72160000       0.32730000      -1.21290000
H        0.72630000      -1.09660000      -1.55880000
H        0.15040000       0.51140000      -2.01460000
H        0.53120000      -0.50710000       0.85700000
H       -0.42780000       2.23810000      -0.10690000
H       -0.45000000       1.66980000       1.57810000
H        1.08470000       1.89750000       0.72960000
H       -2.45450000       1.19720000      -0.33340000
H       -2.49240000      -2.21200000      -0.79530000
H       -1.42200000      -3.68580000       1.12940000
H        0.08090000      -2.80400000       0.71550000
H       -3.06670000      -0.67330000       1.66240000
