17
Properties=species:S:1:pos:R:3 gdb_50399=T pbc="F F F"
O       -0.72250000       0.97510000      -0.52990000
C        0.17500000       1.03740000       0.26970000
C        1.40040000       1.92980000       0.13350000
C        1.30810000       2.88940000      -1.09640000
C        0.66640000       4.14470000      -0.50870000
C        0.85020000       4.15320000       0.80530000
C        0.15360000       4.30270000       2.13490000
O        0.50270000       2.90750000       2.41960000
C        1.49210000       2.91170000       1.32890000
H        0.17080000       0.41350000       1.18790000
H        2.26980000       1.26070000       0.09470000
H        2.29460000       3.06950000      -1.54060000
H        0.67090000       2.45300000      -1.87090000
H        0.05130000       4.81800000      -1.09320000
H        0.62590000       4.97400000       2.86310000
H       -0.92720000       4.47220000       2.11810000
H        2.50040000       2.97970000       1.75600000
