20
Properties=species:S:1:pos:R:3 gdb_56171=T pbc="F F F"
C        0.28640000       1.59270000      -0.05350000
C       -0.27390000       0.19480000       0.08650000
C        0.64590000      -0.98440000       0.28890000
C       -0.24850000      -0.49740000       1.41430000
O       -1.45020000      -0.04520000      -0.64940000
C       -1.27980000      -0.13840000      -2.05260000
C       -2.55250000      -0.65040000      -2.72880000
N       -3.55210000      -0.98470000      -1.87630000
O       -2.61280000      -0.74440000      -3.93910000
H        1.14700000       1.72780000       0.60730000
H        0.62090000       1.79700000      -1.07600000
H       -0.47190000       2.33610000       0.21340000
H        0.37150000      -1.91870000      -0.18770000
H        1.71350000      -0.80600000       0.35580000
H        0.20280000       0.01790000       2.25500000
H       -1.10780000      -1.10940000       1.66260000
H       -1.04260000       0.83390000      -2.50400000
H       -0.46440000      -0.82860000      -2.30900000
H       -3.44100000      -0.82800000      -0.88920000
H       -4.43200000      -1.29120000      -2.25500000
