14
Properties=species:S:1:pos:R:3 gdb_13589=T pbc="F F F"
O       -0.02980000       1.46660000       0.11000000
C       -0.09720000       0.11450000      -0.12000000
C       -0.33060000      -0.87310000       0.95120000
C       -1.47350000      -0.63950000      -0.04850000
C       -2.59790000       0.18270000       0.37470000
O       -2.52600000       1.10180000       1.18260000
C       -3.96090000      -0.08330000      -0.27150000
O       -4.16200000      -0.94950000      -1.08080000
H       -0.70650000       1.69080000       0.77120000
H        0.51990000      -0.16700000      -0.96650000
H        0.15380000      -1.84160000       0.89910000
H       -0.50420000      -0.48880000       1.95160000
H       -1.68880000      -1.40030000      -0.78700000
H       -4.74610000       0.61120000       0.09350000
