23
Properties=species:S:1:pos:R:3 gdb_91127=T pbc="F F F"
C       -0.13260000       1.60410000      -0.09370000
C        0.02610000       0.09180000       0.00320000
C        0.86040000      -0.72060000      -1.03960000
C        1.36370000      -1.65310000       0.10980000
C        2.80740000      -1.47720000       0.67560000
C        3.80360000      -0.55300000      -0.06290000
C        3.18720000       0.67780000       0.67220000
C        2.28730000      -0.27180000       1.53130000
C        0.80810000      -0.61650000       1.14270000
H        0.82220000       2.13230000      -0.14120000
H       -0.70370000       1.87530000      -0.98940000
H       -0.67950000       1.99230000       0.77340000
H       -0.98130000      -0.34380000       0.02210000
H        0.28200000      -1.21070000      -1.82690000
H        1.64980000      -0.14040000      -1.52410000
H        0.98560000      -2.67560000       0.06030000
H        3.20990000      -2.38200000       1.13610000
H        4.83980000      -0.74100000       0.23100000
H        3.76230000      -0.55120000      -1.15590000
H        3.90560000       1.24410000       1.27020000
H        2.66780000       1.38680000       0.02810000
H        2.46810000      -0.20710000       2.60580000
H        0.22110000      -0.92660000       2.01120000
