15
Properties=species:S:1:pos:R:3 gdb_15246=T pbc="F F F"
O        0.06350000       1.24490000      -0.48830000
C       -0.01180000       0.05760000       0.27790000
C       -1.40000000      -0.55840000       0.20410000
C       -1.85150000      -1.15140000      -1.08840000
O       -0.92750000      -1.09300000      -2.12650000
C       -1.58790000      -2.07750000       0.10290000
C       -0.46000000      -2.96030000       0.04370000
N        0.43250000      -3.69350000      -0.03190000
H       -0.00730000       0.97560000      -1.41150000
H        0.74420000      -0.67340000      -0.03220000
H        0.20850000       0.33880000       1.31210000
H       -2.16220000      -0.05030000       0.78590000
H       -2.89350000      -1.04110000      -1.38460000
H       -0.91680000      -1.93130000      -2.60180000
H       -2.45620000      -2.50160000       0.59600000
