19
Properties=species:S:1:pos:R:3 gdb_23200=T pbc="F F F"
C       -0.36340000       1.49950000      -0.07550000
C        0.11200000       0.05030000       0.10640000
C        0.84820000      -0.47260000      -1.09020000
N        0.14160000      -0.87710000      -2.35710000
C        1.02450000      -1.84590000      -1.67820000
C        2.45200000      -1.52230000      -2.15940000
C        2.24430000      -0.14570000      -1.52540000
N        2.96700000       0.85130000      -1.23380000
O        4.26930000       0.70180000      -1.74950000
H        0.48840000       2.16070000      -0.25640000
H       -1.04390000       1.58720000      -0.92830000
H       -0.88870000       1.85080000       0.81750000
H        0.77260000      -0.01180000       0.97940000
H       -0.74340000      -0.60680000       0.31220000
H       -0.81570000      -1.09660000      -2.07510000
H        0.65160000      -2.79420000      -1.31250000
H        3.24150000      -2.08230000      -1.65080000
H        2.60810000      -1.55380000      -3.23990000
H        4.69760000       1.51230000      -1.45440000
