21
Properties=species:S:1:pos:R:3 gdb_111416=T pbc="F F F"
C        0.15050000       1.51330000      -0.12800000
C        0.05650000      -0.01550000      -0.17080000
C       -1.37090000      -0.53340000      -0.02690000
C       -1.57100000      -2.05670000       0.01150000
O       -0.87020000      -2.55550000       1.15390000
C       -2.18270000      -2.02030000       1.35130000
C       -2.05840000      -0.48210000       1.39280000
O       -1.27740000       0.09690000       2.39700000
C       -1.84860000      -0.00190000       3.68280000
H        1.18660000       1.84590000      -0.24660000
H       -0.43820000       1.97160000      -0.93150000
H       -0.22110000       1.89560000       0.82620000
H        0.46230000      -0.38490000      -1.12220000
H        0.66690000      -0.45250000       0.62380000
H       -2.02880000      -0.06960000      -0.77020000
H       -1.73900000      -2.74600000      -0.80830000
H       -2.92270000      -2.67150000       1.80250000
H       -3.05380000      -0.01200000       1.34590000
H       -1.17210000       0.50070000       4.37760000
H       -2.83460000       0.48750000       3.72780000
H       -1.96630000      -1.04880000       3.99820000
