17
Properties=species:S:1:pos:R:3 gdb_22619=T pbc="F F F"
C       -0.05120000       1.53690000      -0.00670000
C       -0.06040000       0.03400000       0.03740000
N        0.34880000      -0.76780000      -1.21030000
C       -0.34710000      -1.91270000      -0.47170000
C        0.57670000      -2.01620000       0.74420000
C        0.76970000      -0.73720000       1.07790000
C       -1.32600000      -0.84120000       0.03260000
N       -2.55630000      -0.59100000       0.13960000
O       -3.34190000      -1.73680000      -0.14790000
H        0.95600000       1.90510000      -0.22410000
H       -0.73410000       1.91290000      -0.77370000
H       -0.36950000       1.94940000       0.95540000
H       -0.27630000      -0.47480000      -1.97000000
H       -0.64060000      -2.79820000      -1.02790000
H        0.93620000      -2.92650000       1.20000000
H        1.33470000      -0.29550000       1.88580000
H       -4.23420000      -1.40080000      -0.01300000
