19
Properties=species:S:1:pos:R:3 gdb_10195=T pbc="F F F"
C       -0.13210000       1.48870000      -0.02140000
N        0.14370000       0.05700000       0.04810000
C        0.67860000      -0.49470000      -1.18950000
C        0.67080000      -2.03500000      -1.10890000
N       -0.69470000      -2.50580000      -0.94480000
C       -0.80630000      -3.90040000      -0.53890000
C        1.27480000      -2.60510000      -2.32620000
N        1.76750000      -3.04740000      -3.27290000
H        0.73860000       2.10110000      -0.31140000
H       -0.92590000       1.67040000      -0.75340000
H       -0.48760000       1.83770000       0.95200000
H        0.79650000      -0.12240000       0.80530000
H        0.02090000      -0.19440000      -2.01200000
H        1.69520000      -0.14530000      -1.43370000
H        1.33140000      -2.33710000      -0.26930000
H       -1.12350000      -1.88900000      -0.26110000
H       -0.43410000      -4.54970000      -1.33810000
H       -0.24740000      -4.14610000       0.38200000
H       -1.85980000      -4.14270000      -0.37620000
