21
Properties=species:S:1:pos:R:3 gdb_57374=T pbc="F F F"
C       -0.22450000       1.47850000      -0.01630000
C       -0.03400000      -0.04990000      -0.03390000
C        0.82370000      -0.45380000       1.18500000
C       -1.41400000      -0.73580000       0.03200000
C        0.69400000      -0.49670000      -1.31010000
C        0.61000000       0.24130000      -2.59460000
O        1.77340000       0.33380000      -1.79180000
C        1.06070000      -1.94540000      -1.50850000
O        0.64470000      -2.88570000      -0.88210000
H        0.71900000       2.00040000      -0.19420000
H       -0.95350000       1.81130000      -0.76200000
H       -0.60560000       1.78400000       0.96280000
H        0.33230000      -0.13430000       2.10940000
H        0.96680000      -1.53510000       1.23430000
H        1.80710000       0.02630000       1.14410000
H       -2.02600000      -0.47210000      -0.83800000
H       -1.31910000      -1.82160000       0.07120000
H       -1.94950000      -0.40150000       0.92680000
H        0.73220000      -0.29170000      -3.53760000
H       -0.00800000       1.13370000      -2.64270000
H        1.80070000      -2.06980000      -2.33110000
