19
Properties=species:S:1:pos:R:3 gdb_62759=T pbc="F F F"
C        0.13730000       1.54310000      -0.00190000
C        0.06870000       0.02940000      -0.03630000
C       -1.19520000      -0.54800000       0.57700000
C        0.63500000      -0.77360000      -1.20710000
C        1.64850000      -0.13300000      -2.12880000
C        2.82970000       0.23340000      -1.22220000
O        3.83730000       0.80550000      -1.51150000
O        2.56690000      -0.17820000       0.05790000
C        1.30680000      -0.81210000       0.14590000
H        1.08440000       1.94320000      -0.36860000
H       -0.66680000       1.97650000      -0.60720000
H        0.01080000       1.90350000       1.02470000
H       -2.08230000      -0.21910000       0.02400000
H       -1.18610000      -1.64270000       0.56710000
H       -1.30810000      -0.22290000       1.61710000
H        0.06310000      -1.62000000      -1.56870000
H        2.00080000      -0.82730000      -2.89780000
H        1.30860000       0.77040000      -2.64310000
H        1.32710000      -1.67190000       0.80500000
