20
Properties=species:S:1:pos:R:3 gdb_95880=T pbc="F F F"
C       -0.06130000       1.50070000       0.05710000
C        0.01290000      -0.01570000      -0.00910000
C        0.78100000      -0.51810000      -1.24200000
N        0.96120000      -1.95660000      -1.16790000
C        1.52590000      -2.45550000       0.07850000
C        0.73230000      -1.88060000       1.25140000
O        0.65830000      -0.46550000       1.17700000
C        0.59690000      -2.80630000      -2.16800000
O        0.71100000      -4.01410000      -2.14340000
H        0.94350000       1.93290000       0.08860000
H       -0.58760000       1.90150000      -0.81450000
H       -0.59450000       1.81100000       0.95900000
H       -1.00450000      -0.44320000      -0.04710000
H        0.23790000      -0.27300000      -2.16010000
H        1.75900000      -0.01540000      -1.27700000
H        1.48090000      -3.54560000       0.05120000
H        2.57690000      -2.14490000       0.15860000
H       -0.28070000      -2.31440000       1.25890000
H        1.21940000      -2.11770000       2.20120000
H        0.17080000      -2.25810000      -3.03210000
