15
Properties=species:S:1:pos:R:3 gdb_30431=T pbc="F F F"
C        0.07580000       1.38310000       0.06950000
N        0.22220000      -0.05910000       0.05950000
C        0.65280000      -0.63990000      -0.96010000
O        0.81530000      -1.97770000      -1.06410000
C        1.35210000      -2.25060000      -2.35660000
N        1.63300000      -3.54390000      -2.74500000
C        1.46010000      -1.07960000      -2.98100000
O        1.84460000      -0.75800000      -4.21860000
O        1.04180000      -0.05290000      -2.16500000
H        0.70460000       1.80790000       0.86080000
H        0.33600000       1.87300000      -0.87700000
H       -0.96060000       1.64020000       0.31630000
H        0.80980000      -4.13610000      -2.79110000
H        2.32570000      -3.99450000      -2.15590000
H        2.12150000       0.16650000      -4.22210000
