20
Properties=species:S:1:pos:R:3 gdb_78887=T pbc="F F F"
C        0.08750000       1.57770000      -0.03960000
C        0.02650000       0.05580000       0.02330000
N        0.75890000      -0.54980000      -1.10170000
C        2.16420000      -0.76020000      -0.70120000
C        1.20650000      -1.89900000      -0.72350000
C        1.20300000      -1.94590000       0.83020000
C        2.18000000      -0.78310000       0.85290000
C        0.72720000      -0.56670000       1.22950000
C        0.31560000      -0.26190000       2.64670000
H        1.12310000       1.92680000       0.02930000
H       -0.33190000       1.93790000      -0.98280000
H       -0.47980000       2.02780000       0.78110000
H       -1.01700000      -0.27980000      -0.03300000
H        2.96620000      -0.47260000      -1.36880000
H        1.07490000      -2.72460000      -1.41120000
H        1.15900000      -2.82320000       1.46020000
H        3.02450000      -0.60250000       1.50280000
H        0.41110000       0.80660000       2.86890000
H       -0.72730000      -0.54800000       2.82520000
H        0.93500000      -0.80500000       3.36690000
