17
Properties=species:S:1:pos:R:3 gdb_36426=T pbc="F F F"
N       -0.40550000      -0.85640000      -0.47530000
C       -0.17190000       0.26850000      -0.35510000
C        0.12220000       1.70250000      -0.23340000
N        1.49320000       1.92760000       0.22220000
C        2.51780000       1.55840000      -0.77620000
C        2.96800000       2.86620000      -1.40080000
O        1.86950000       3.69810000      -1.80380000
C        2.49740000       3.95410000      -0.54000000
C        1.75040000       3.32490000       0.62250000
H       -0.10850000       2.18630000      -1.19590000
H       -0.56510000       2.11680000       0.51180000
H        3.37520000       1.07560000      -0.28840000
H        2.11040000       0.84800000      -1.50070000
H        3.86500000       2.92610000      -2.01090000
H        3.00820000       4.90790000      -0.43870000
H        0.81430000       3.83910000       0.85860000
H        2.38430000       3.35810000       1.51960000
