17
Properties=species:S:1:pos:R:3 gdb_6950=T pbc="F F F"
C       -0.04990000       1.57620000       0.04050000
C        0.01020000       0.04800000      -0.02200000
C       -1.38860000      -0.57650000      -0.09450000
N        0.86740000      -0.42220000      -1.12190000
C        1.82160000      -1.26150000      -0.62320000
C        1.84910000      -1.31980000       0.73510000
C        0.75320000      -0.50810000       1.23390000
O        0.40640000      -0.25430000       2.37110000
H        0.95500000       2.00500000       0.00460000
H       -0.63170000       1.98580000      -0.79190000
H       -0.51880000       1.87280000       0.98270000
H       -1.95020000      -0.19180000      -0.95330000
H       -1.32890000      -1.66640000      -0.17260000
H       -1.93710000      -0.33020000       0.81870000
H        0.47590000      -0.58290000      -2.03700000
H        2.47730000      -1.77760000      -1.31530000
H        2.55960000      -1.85660000       1.34340000
