17
Properties=species:S:1:pos:R:3 gdb_114381=T pbc="F F F"
O       -0.34650000       1.61280000      -0.66440000
C       -0.16480000       0.29230000      -0.19020000
C       -1.46050000      -0.48860000      -0.29410000
O       -1.96510000      -0.59070000      -1.66760000
C       -2.24230000      -1.97980000      -1.46410000
C       -0.97290000      -2.77710000      -1.32400000
C        0.26260000      -2.47450000      -2.09450000
O        1.13960000      -3.28420000      -2.27970000
C       -1.56060000      -1.99990000      -0.12760000
H       -0.66130000       1.54320000      -1.57320000
H        0.64930000      -0.22200000      -0.71880000
H        0.12320000       0.36890000       0.86430000
H       -2.22790000       0.01300000       0.30910000
H       -3.18650000      -2.36970000      -1.82510000
H       -1.12810000      -3.84460000      -1.18930000
H        0.31210000      -1.45950000      -2.53490000
H       -1.81170000      -2.52460000       0.78330000
