16
Properties=species:S:1:pos:R:3 gdb_71379=T pbc="F F F"
C       -0.00950000       1.47910000       0.01890000
C       -0.04910000      -0.01830000       0.00180000
C       -1.22020000      -0.97640000      -0.20150000
N       -0.32380000      -2.09610000       0.31790000
C        0.58170000      -1.01570000       0.91040000
C        1.21850000      -0.85170000      -0.46000000
O        2.41580000      -0.25690000      -0.75320000
C        0.65620000      -2.18990000      -0.81110000
O        0.86360000      -3.07750000      -1.57380000
H        0.99920000       1.83810000       0.24360000
H       -0.30960000       1.89380000      -0.95010000
H       -0.69000000       1.87900000       0.77800000
H       -2.04960000      -0.80190000       0.49050000
H       -1.60780000      -1.14860000      -1.21240000
H        1.02760000      -1.03370000       1.89370000
H        2.34960000       0.18100000      -1.60970000
