17
Properties=species:S:1:pos:R:3 gdb_49620=T pbc="F F F"
O       -0.00580000      -0.00630000      -0.16010000
C        0.02540000       1.12500000       0.26220000
C        1.23150000       1.99050000       0.15620000
C        1.21780000       3.47050000      -0.17450000
C       -0.01500000       4.19050000       0.39750000
C        0.43440000       3.70680000       1.79300000
C        0.29870000       4.38280000       3.08120000
O       -0.41470000       3.17000000       2.79170000
C        1.64310000       3.00700000       1.21530000
H       -0.85590000       1.57010000       0.76600000
H        2.07470000       1.46150000      -0.27930000
H        1.84420000       3.84940000      -0.97140000
H        0.05260000       5.27660000       0.29760000
H       -0.99810000       3.86420000       0.05020000
H        1.08490000       4.29110000       3.82980000
H       -0.31500000       5.27940000       3.15830000
H        2.62760000       2.95610000       1.66380000
