17
Properties=species:S:1:pos:R:3 gdb_76320=T pbc="F F F"
C       -0.77290000       1.46430000       0.03960000
C       -0.08290000       0.12240000      -0.03770000
O       -0.95290000      -0.99120000       0.14720000
C        0.79590000      -0.22650000      -1.28740000
O        1.35860000       0.92000000      -1.86410000
C        1.84170000      -0.93100000      -0.34630000
O        3.19230000      -0.67450000      -0.63520000
C        1.21700000      -0.10090000       0.78140000
O        1.70760000       0.39820000       1.75550000
H       -0.09180000       2.25750000      -0.27470000
H       -1.65000000       1.47130000      -0.61420000
H       -1.09620000       1.67220000       1.06570000
H       -1.36930000      -0.90110000       1.01190000
H        0.28920000      -0.86760000      -2.01620000
H        2.31390000       0.75940000      -1.89410000
H        1.64240000      -2.00340000      -0.25550000
H        3.55650000      -0.18760000       0.11580000
