17
Properties=species:S:1:pos:R:3 gdb_35700=T pbc="F F F"
N       -0.17620000      -1.04080000      -0.62950000
C       -0.12330000       0.04900000      -0.24630000
C       -0.00530000       1.43630000       0.19680000
O        0.06680000       1.57240000       1.62180000
C        1.27710000       2.36570000       1.54330000
C        1.39250000       2.14730000       0.02480000
C        2.56460000       1.41150000      -0.66290000
C        2.39970000       2.43890000      -1.81130000
N        1.57100000       3.25980000      -0.89610000
H       -0.83470000       2.01970000      -0.22910000
H        1.10290000       3.41040000       1.82690000
H        2.07970000       1.94320000       2.15760000
H        3.50090000       1.52440000      -0.11290000
H        2.40640000       0.36030000      -0.90360000
H        3.30150000       2.94410000      -2.16910000
H        1.85840000       2.02740000      -2.67240000
H        0.73630000       3.69540000      -1.27360000
