19
Properties=species:S:1:pos:R:3 gdb_80362=T pbc="F F F"
C       -0.34550000       1.48210000      -0.04860000
C        0.01030000       0.01360000      -0.07060000
C        0.64230000      -0.72590000      -1.17910000
C        1.70950000       0.09020000      -1.90270000
C        2.43370000       0.20110000      -0.52590000
C        3.72780000      -0.61270000      -0.45190000
C        2.68320000       1.54470000       0.00190000
N        2.91600000       2.59990000       0.41350000
N        1.34470000      -0.59210000       0.17830000
H        0.25830000       2.09600000      -0.71760000
H       -1.39280000       1.59210000      -0.34960000
H       -0.24070000       1.89210000       0.96010000
H       -0.71330000      -0.59120000       0.47450000
H        0.27520000      -1.68740000      -1.52330000
H        2.29870000      -0.48250000      -2.62000000
H        1.37880000       1.01730000      -2.37580000
H        4.51220000      -0.14810000      -1.05610000
H        4.07040000      -0.68260000       0.58330000
H        3.53880000      -1.62360000      -0.82170000
