16
Properties=species:S:1:pos:R:3 gdb_29890=T pbc="F F F"
C       -0.46140000       1.38660000       0.02780000
N        0.00050000       0.00300000       0.00710000
C        0.28260000      -0.64240000      -1.16540000
C        0.71240000      -1.91920000      -1.24010000
C        0.89850000      -2.68630000      -0.02250000
O        1.27670000      -3.83740000       0.06900000
N        0.58730000      -1.95160000       1.13730000
C        0.14480000      -0.64060000       1.23990000
N       -0.13070000       0.00400000       2.30870000
H        0.23090000       2.00970000       0.59860000
H       -0.52470000       1.74660000      -0.99990000
H       -1.44100000       1.45280000       0.50660000
H        0.13270000      -0.04040000      -2.05430000
H        0.92410000      -2.39240000      -2.18710000
H        0.70890000      -2.46410000       1.99920000
H        0.01240000      -0.56720000       3.13800000
