11
Properties=species:S:1:pos:R:3 gdb_132836=T pbc="F F F"
F       -0.00640000       0.05460000       0.00350000
C       -0.02690000       1.37250000       0.01090000
N       -1.19720000       1.95960000       0.02920000
C       -1.18550000       3.29590000       0.03620000
C        0.00610000       4.01840000       0.02470000
N        1.19170000       3.41230000       0.00610000
C        1.18890000       2.07730000      -0.00100000
C        2.44110000       1.37830000      -0.02100000
N        3.44050000       0.79710000      -0.03710000
H       -2.14930000       3.79580000       0.05140000
H        0.00630000       5.10350000       0.03060000
