27
Properties=species:S:1:pos:R:3 gdb_122880=T pbc="F F F"
C       -0.03530000       1.52150000       0.04210000
C        0.01820000      -0.00650000      -0.02560000
C        0.72880000      -0.51000000      -1.27450000
O        0.73520000      -1.92040000      -1.26050000
C        1.37390000      -2.49390000      -2.38100000
C        1.33400000      -4.02660000      -2.28020000
C       -0.12890000      -4.50320000      -2.24210000
C        2.03910000      -4.60300000      -3.51970000
C        2.06660000      -4.47900000      -1.00450000
H        0.97010000       1.95680000       0.05190000
H       -0.56900000       1.94140000      -0.81780000
H       -0.55000000       1.85720000       0.94700000
H        0.53440000      -0.40850000       0.85390000
H       -0.99530000      -0.42380000      -0.01020000
H        0.21950000      -0.13830000      -2.18150000
H        1.76270000      -0.12260000      -1.30980000
H        0.87480000      -2.16640000      -3.31020000
H        2.42170000      -2.14920000      -2.43740000
H       -0.66150000      -4.21280000      -3.15500000
H       -0.18030000      -5.59400000      -2.15830000
H       -0.65680000      -4.06590000      -1.39120000
H        3.08380000      -4.27640000      -3.57480000
H        2.03480000      -5.69770000      -3.49100000
H        1.54010000      -4.29330000      -4.44500000
H        1.60450000      -4.04120000      -0.11650000
H        2.03990000      -5.56960000      -0.90700000
H        3.11830000      -4.17100000      -1.02420000
