16
Properties=species:S:1:pos:R:3 gdb_102962=T pbc="F F F"
O        0.03580000       1.39490000       0.17690000
C        0.06700000       0.00130000       0.01450000
C       -1.34480000      -0.60320000      -0.00640000
O       -1.92780000      -0.27750000       1.24080000
C       -3.20940000      -0.83060000       1.47900000
C       -3.67770000      -0.35160000       2.84280000
O       -4.64430000      -0.79420000       3.40000000
C       -2.15100000      -0.07440000      -1.12740000
N       -2.80550000       0.31450000      -1.99610000
H       -0.46900000       1.57550000       0.97820000
H        0.56740000      -0.20740000      -0.93510000
H        0.62120000      -0.50430000       0.81950000
H       -1.27330000      -1.69570000      -0.12880000
H       -3.93670000      -0.50100000       0.72100000
H       -3.18590000      -1.93020000       1.46650000
H       -3.04840000       0.45640000       3.27650000
