17
Properties=species:S:1:pos:R:3 gdb_95398=T pbc="F F F"
N        0.04930000       1.32270000       0.13930000
C       -0.04690000      -0.03970000       0.04940000
N       -1.17140000      -0.64900000      -0.00060000
C       -1.20430000      -2.10440000      -0.02570000
C        0.06630000      -2.78790000      -0.54810000
C        1.27570000      -2.23370000       0.20680000
O        2.48390000      -2.81380000      -0.19630000
C        1.29630000      -0.73240000       0.01870000
O        2.33180000      -0.12710000      -0.17530000
H        0.93700000       1.72060000      -0.12440000
H       -0.78110000       1.84930000      -0.07970000
H       -1.41730000      -2.45950000       0.99520000
H       -2.06740000      -2.40680000      -0.62810000
H        0.01140000      -3.87320000      -0.41850000
H        0.19350000      -2.59050000      -1.61950000
H        1.10410000      -2.39910000       1.29030000
H        3.11830000      -2.08560000      -0.27350000
