17
Properties=species:S:1:pos:R:3 gdb_64559=T pbc="F F F"
C        0.04030000       1.59000000      -0.18950000
C        0.00450000       0.06380000      -0.09920000
C       -1.35260000      -0.42070000      -0.54800000
O       -2.19310000      -0.88360000       0.18070000
C        1.31270000      -0.65410000      -0.63990000
O        1.95980000      -0.24680000       0.60410000
C        0.64940000      -0.56260000       1.18800000
C        0.54520000      -2.06900000       0.89680000
C        1.00210000      -2.13220000      -0.35610000
H        1.03180000       1.95450000       0.08400000
H       -0.19140000       1.92810000      -1.20610000
H       -0.69990000       2.03510000       0.48370000
H       -1.55410000      -0.27240000      -1.63600000
H        1.83320000      -0.35100000      -1.54760000
H        0.49120000      -0.17540000       2.19270000
H        0.16760000      -2.83420000       1.55710000
H        1.11830000      -2.96650000      -1.03130000
