18
Properties=species:S:1:pos:R:3 gdb_57798=T pbc="F F F"
C        0.17270000       1.65100000      -0.15080000
C       -0.05430000       0.13480000       0.01480000
N        0.41550000      -0.69130000      -1.11190000
H        1.40490000      -0.51260000      -1.26690000
H        1.37230000      -2.74440000       1.44640000
H       -0.06410000      -0.39850000      -1.95930000
C        0.57310000      -0.35930000       1.24450000
C        1.11550000      -0.76610000       2.24160000
C        1.77040000      -1.38560000       3.38340000
C        2.16980000      -2.86360000       3.16790000
O        1.82950000      -3.40790000       1.99050000
O        2.74980000      -3.48360000       4.01390000
H        1.24170000       1.87110000      -0.23390000
H       -0.32700000       2.00490000      -1.05830000
H       -0.22560000       2.20880000       0.70220000
H       -1.13550000      -0.04130000       0.09480000
H        2.68600000      -0.85310000       3.66280000
H        1.12720000      -1.36390000       4.27050000
