13
Properties=species:S:1:pos:R:3 gdb_129205=T pbc="F F F"
N       -0.13150000       1.33660000       0.00850000
C        0.01010000       0.07270000       0.00130000
N       -1.15610000      -0.72280000       0.00350000
N       -1.21430000      -2.04160000      -0.00290000
C       -0.06960000      -2.66560000      -0.01210000
C        1.16500000      -1.92770000      -0.01490000
C        2.46440000      -2.70250000      -0.02570000
O        3.55160000      -2.19530000      -0.02850000
N        1.21600000      -0.63290000      -0.00870000
H        0.78690000       1.77630000       0.00580000
H       -2.04350000      -0.23810000       0.01060000
H       -0.10170000      -3.74800000      -0.01730000
H        2.33080000      -3.80670000      -0.03100000
