18
Properties=species:S:1:pos:R:3 gdb_12971=T pbc="F F F"
C       -0.09390000       1.56510000       0.00990000
C        0.17190000       0.07330000       0.03900000
O        1.32940000      -0.36040000      -0.75350000
C        1.77790000      -1.18600000       0.33300000
C        2.20240000      -0.29160000       1.44300000
O        2.78850000       0.94860000       1.19360000
C        0.72060000      -0.62260000       1.28750000
C       -0.11960000      -1.25470000       2.35770000
H        0.73330000       2.12930000       0.44280000
H       -0.26290000       1.89990000      -1.01890000
H       -1.00030000       1.78590000       0.58450000
H       -0.70490000      -0.47320000      -0.33620000
H        2.12900000      -2.18490000       0.09550000
H        2.65490000      -0.78710000       2.29880000
H        2.74970000       1.06400000       0.23400000
H       -0.59320000      -0.49430000       2.99020000
H       -0.91460000      -1.87680000       1.93000000
H        0.48410000      -1.89190000       3.01190000
