19
Properties=species:S:1:pos:R:3 gdb_74337=T pbc="F F F"
C        0.19010000       1.50030000       0.06510000
C       -0.01560000       0.02430000       0.05550000
N       -1.11640000      -0.58400000      -0.13030000
C       -0.82990000      -2.02690000      -0.04510000
C        0.70060000      -2.09150000       0.23570000
O        1.11300000      -0.70980000       0.26520000
C       -1.66780000      -2.69560000       1.02240000
C       -3.00510000      -3.23670000       0.69770000
N       -1.88510000      -4.15320000       0.98870000
H        0.90140000       1.78720000      -0.71570000
H       -0.76070000       2.00510000      -0.10090000
H        0.61470000       1.81620000       1.02300000
H       -1.07410000      -2.49270000      -1.01010000
H        0.93640000      -2.54540000       1.20330000
H        1.26880000      -2.60400000      -0.54490000
H       -1.49720000      -2.30650000       2.02510000
H       -3.79300000      -3.22630000       1.44470000
H       -3.35210000      -3.14290000      -0.32810000
H       -1.52570000      -4.53400000       0.11530000
