16
Properties=species:S:1:pos:R:3 gdb_41020=T pbc="F F F"
C       -0.01930000       1.47990000       0.22910000
O        1.42530000       1.51610000      -0.07770000
C        1.22380000       0.32990000      -0.84400000
C        0.00920000      -0.05280000      -0.07610000
O       -0.69540000      -0.89010000      -0.99370000
C        0.32570000      -1.04320000      -1.98550000
C        0.86770000       0.33390000      -2.38160000
N        2.24340000      -0.19550000      -2.69910000
C        1.87000000      -0.92920000      -1.44890000
H       -0.21320000       1.78800000       1.25800000
H       -0.58950000       2.08630000      -0.48240000
H        0.20470000      -0.60390000       0.84920000
H        0.07880000      -1.80530000      -2.72350000
H        0.37930000       1.11140000      -2.96790000
H        2.18810000      -0.82590000      -3.50580000
H        2.50240000      -1.68600000      -0.98510000
