17
Properties=species:S:1:pos:R:3 gdb_41012=T pbc="F F F"
C       -0.03860000       1.49960000       0.20510000
N        1.45880000       1.49820000      -0.03190000
C        1.25000000       0.31610000      -0.86030000
C        0.03470000      -0.04300000      -0.06740000
O       -0.69050000      -0.89630000      -0.95360000
C        0.28830000      -1.05880000      -1.97950000
C        0.82770000       0.31390000      -2.39000000
N        2.18940000      -0.22080000      -2.75250000
C        1.84070000      -0.96080000      -1.49390000
H       -0.33090000       1.82480000       1.20580000
H       -0.60840000       2.04270000      -0.55770000
H        1.82740000       2.30860000      -0.51960000
H        0.23530000      -0.57250000       0.86870000
H       -0.00040000      -1.81450000      -2.71010000
H        0.32610000       1.09430000      -2.96380000
H        2.10310000      -0.84580000      -3.56090000
H        2.48210000      -1.72740000      -1.05820000
