21
Properties=species:S:1:pos:R:3 gdb_107145=T pbc="F F F"
C        0.05850000       1.51330000       0.25420000
C       -0.00380000       0.01810000      -0.08780000
C       -1.40870000      -0.51710000      -0.11870000
C       -2.14440000      -1.00450000       1.09570000
C       -1.90520000      -1.97510000      -0.03830000
C       -2.87340000      -1.68700000      -1.15410000
C       -3.31490000      -2.56010000      -2.23870000
O       -4.21780000      -2.14460000      -1.20260000
C       -2.43600000      -0.21120000      -1.23040000
H        1.09160000       1.87430000       0.25870000
H       -0.49970000       2.10940000      -0.47580000
H       -0.37340000       1.70900000       1.24100000
H        0.47340000      -0.15280000      -1.06230000
H        0.58220000      -0.55100000       0.64490000
H       -1.52980000      -1.17820000       1.97410000
H       -3.15260000      -0.66340000       1.31790000
H       -1.33970000      -2.88990000       0.09730000
H       -3.50960000      -2.14250000      -3.22660000
H       -3.05040000      -3.61750000      -2.22910000
H       -3.20420000       0.53060000      -0.99130000
H       -1.97750000       0.04320000      -2.19060000
