16
Properties=species:S:1:pos:R:3 gdb_11432=T pbc="F F F"
C        0.05270000       1.19690000       0.27020000
O       -0.11300000      -0.14840000      -0.12130000
C        0.59950000      -0.50710000      -1.28780000
C        2.08890000      -0.79740000      -1.00260000
O        2.16190000      -2.17810000      -0.62820000
C        1.04840000      -2.85600000      -1.03060000
O        0.91320000      -4.02920000      -0.85050000
C        0.10250000      -1.88160000      -1.72390000
H        1.09170000       1.43430000       0.54210000
H       -0.26240000       1.88890000      -0.52600000
H       -0.57810000       1.35410000       1.14760000
H        0.48350000       0.26710000      -2.05900000
H        2.70910000      -0.63210000      -1.89200000
H        2.48640000      -0.20200000      -0.17810000
H       -0.93280000      -2.06530000      -1.43780000
H        0.19590000      -2.02120000      -2.80570000
