18
Properties=species:S:1:pos:R:3 gdb_75514=T pbc="F F F"
C       -0.03570000       1.53670000       0.00390000
C        0.01070000       0.02700000       0.04880000
C       -1.15930000      -0.66740000       0.05270000
N       -1.37400000      -2.01130000      -0.03250000
C       -0.42150000      -2.90680000      -0.67240000
C        0.86170000      -3.02350000       0.10980000
C        1.60010000      -1.97940000       0.48690000
C        1.35990000      -0.53230000       0.21720000
O        2.33570000       0.21380000       0.24260000
H        0.46620000       1.91690000      -0.89230000
H       -1.06610000       1.90420000      -0.00070000
H        0.49490000       1.97370000       0.85570000
H       -2.08270000      -0.09790000       0.13970000
H       -2.33800000      -2.29350000      -0.08580000
H       -0.89860000      -3.88550000      -0.75980000
H       -0.20360000      -2.55330000      -1.69490000
H        1.20420000      -4.02760000       0.34500000
H        2.54410000      -2.14570000       0.99840000
