17
Properties=species:S:1:pos:R:3 gdb_51752=T pbc="F F F"
O       -0.03390000      -0.01970000       0.13160000
C       -0.00620000       1.17770000       0.01630000
C        1.25780000       2.01160000       0.00710000
C        1.37830000       2.84900000      -1.26980000
C        0.45770000       4.10140000      -1.34350000
N        1.58930000       4.92780000      -0.86780000
C        2.55460000       3.88630000      -1.26990000
C        3.68020000       3.68290000      -0.35710000
N        4.57280000       3.50590000       0.35540000
H       -0.95050000       1.75960000      -0.09700000
H        1.23210000       2.68530000       0.87460000
H        2.11430000       1.34160000       0.12060000
H        1.36580000       2.20600000      -2.15130000
H        0.13290000       4.31390000      -2.37090000
H       -0.41680000       4.12560000      -0.68580000
H        1.71320000       5.83360000      -1.30590000
H        2.95850000       4.00470000      -2.28570000
