16
Properties=species:S:1:pos:R:3 gdb_128858=T pbc="F F F"
C        0.01850000       1.37530000       0.00890000
O       -0.01580000      -0.03670000       0.00260000
C       -1.31880000      -0.55450000       0.01210000
C       -1.17210000      -2.07750000       0.00250000
N       -2.47040000      -2.73450000       0.01130000
N       -3.13700000      -3.04800000       1.11230000
N       -4.25350000      -3.56340000       0.69740000
N       -4.26520000      -3.55840000      -0.64980000
N       -3.15590000      -3.04030000      -1.08020000
H        1.06910000       1.67190000       0.00070000
H       -0.48020000       1.79560000      -0.87730000
H       -0.46390000       1.78730000       0.90790000
H       -1.87580000      -0.23890000       0.90920000
H       -1.89250000      -0.22930000      -0.87100000
H       -0.64510000      -2.40410000      -0.89470000
H       -0.62790000      -2.41360000       0.88570000
