17
Properties=species:S:1:pos:R:3 gdb_63596=T pbc="F F F"
C       -0.12240000       1.53450000      -0.10350000
C       -0.03240000       0.02760000      -0.00030000
C       -1.22780000      -0.73210000      -0.53860000
N        1.30710000      -0.52460000      -0.21700000
C        0.71840000      -0.60490000       1.14650000
C        1.34770000       0.15400000       2.18320000
C        1.85070000       0.78440000       3.08480000
C        2.42110000       1.49620000       4.09880000
N        2.90490000       2.10210000       4.96470000
H        0.78490000       2.00800000       0.27470000
H       -0.25100000       1.83030000      -1.15010000
H       -0.97880000       1.91290000       0.46390000
H       -1.34510000      -0.54190000      -1.61140000
H       -1.11870000      -1.81200000      -0.39450000
H       -2.15140000      -0.41540000      -0.04350000
H        1.25450000      -1.44550000      -0.64840000
H        0.34690000      -1.57340000       1.47560000
