20
Properties=species:S:1:pos:R:3 gdb_101296=T pbc="F F F"
C       -0.05500000       1.74120000      -0.26340000
C        0.09170000       0.21570000      -0.13920000
C       -1.28810000      -0.41970000       0.10330000
O       -1.25190000      -1.81400000       0.36190000
C        0.76760000      -0.33490000      -1.38440000
C        2.26630000      -0.27940000      -1.52500000
N        1.57970000      -1.53690000      -1.38300000
C        1.79000000      -2.45160000      -0.36810000
O        2.86690000      -2.68880000       0.12810000
H        0.91750000       2.22100000      -0.40080000
H       -0.68270000       2.00660000      -1.12200000
H       -0.52020000       2.16590000       0.63160000
H        0.73050000      -0.00780000       0.72770000
H       -1.79490000       0.11800000       0.91820000
H       -1.90690000      -0.29810000      -0.79400000
H       -0.91770000      -1.94360000       1.25510000
H        0.17870000      -0.20820000      -2.29420000
H        2.71670000      -0.08110000      -2.49390000
H        2.84450000       0.06100000      -0.66850000
H        0.86170000      -2.98960000      -0.11620000
