18
Properties=species:S:1:pos:R:3 gdb_74186=T pbc="F F F"
N        0.09660000       1.35250000       0.24550000
C        0.00780000      -0.00300000       0.05310000
C       -1.17980000      -0.66270000      -0.01730000
C       -1.29330000      -2.10810000      -0.07120000
O       -2.35920000      -2.68100000      -0.23860000
C       -0.02030000      -2.93560000       0.16210000
C        1.29390000      -2.21970000      -0.06610000
C        1.58520000      -1.48780000      -1.34140000
C        1.30640000      -0.70530000      -0.06200000
H        0.92750000       1.82020000      -0.08050000
H       -0.75090000       1.89200000       0.15830000
H       -2.11610000      -0.11230000      -0.03160000
H       -0.07170000      -3.27420000       1.20520000
H       -0.09560000      -3.83750000      -0.45340000
H        2.15310000      -2.68420000       0.40830000
H        2.60310000      -1.48980000      -1.71610000
H        0.81540000      -1.45500000      -2.10480000
H        2.14670000      -0.20150000       0.40550000
