16
Properties=species:S:1:pos:R:3 gdb_10479=T pbc="F F F"
C       -0.02950000       1.47270000      -0.01020000
C       -0.02190000       0.01760000      -0.01050000
C       -0.00380000      -1.18620000      -0.01890000
C        0.02410000      -2.62060000      -0.03320000
C       -0.46300000      -3.39310000       1.20600000
C       -1.30490000      -3.39730000      -0.01540000
C        1.12360000      -3.29190000      -0.78880000
O        2.00110000      -2.73860000      -1.39550000
H        0.81200000       1.86570000      -0.59100000
H       -0.95070000       1.86910000      -0.45150000
H        0.05290000       1.87410000       1.00600000
H        0.08070000      -4.29540000       1.46590000
H       -0.75990000      -2.77870000       2.04640000
H       -2.19780000      -2.78580000      -0.03980000
H       -1.35140000      -4.30250000      -0.61180000
H        1.06030000      -4.40590000      -0.74140000
