14
Properties=species:S:1:pos:R:3 gdb_27914=T pbc="F F F"
N        0.01000000       1.32770000       0.14660000
C        0.01220000      -0.02190000       0.04120000
N       -1.19030000      -0.62350000       0.00410000
C       -1.10650000      -1.94270000      -0.06430000
O       -2.27250000      -2.59860000      -0.09990000
N       -0.00150000      -2.68800000      -0.10170000
C        1.13050000      -1.96300000      -0.06910000
N        2.29900000      -2.64700000      -0.14330000
N        1.20590000      -0.62960000       0.00530000
H        0.87640000       1.81800000       0.01130000
H       -0.86250000       1.80920000       0.01760000
H       -2.04550000      -3.53720000      -0.15290000
H        2.26990000      -3.64310000      -0.01380000
H        3.14710000      -2.14890000       0.06380000
