22
Properties=species:S:1:pos:R:3 gdb_117219=T pbc="F F F"
C        0.09830000       1.47680000      -0.14710000
C        0.09460000      -0.01120000      -0.50510000
C       -1.23540000      -0.69140000      -0.18590000
C       -1.27780000      -2.17100000      -0.53650000
O       -0.31810000      -2.75140000      -1.00470000
C       -2.58130000      -2.86050000      -0.25480000
C       -2.92260000      -4.09350000      -1.04220000
N       -2.64870000      -4.19940000       0.36830000
C       -1.42660000      -4.87840000       0.79420000
H        1.06200000       1.93730000      -0.38510000
H       -0.67570000       2.02270000      -0.69860000
H       -0.08860000       1.63160000       0.92160000
H        0.31600000      -0.14490000      -1.56950000
H        0.89660000      -0.53150000       0.02930000
H       -1.48460000      -0.59360000       0.88140000
H       -2.06810000      -0.19880000      -0.71070000
H       -3.38600000      -2.20370000       0.06770000
H       -3.95350000      -4.25420000      -1.34840000
H       -2.15890000      -4.42620000      -1.74320000
H       -0.57220000      -4.73160000       0.12490000
H       -1.15750000      -4.52540000       1.79480000
H       -1.65210000      -5.94710000       0.86310000
