17
Properties=species:S:1:pos:R:3 gdb_6303=T pbc="F F F"
C       -0.07600000       1.65560000       0.09400000
C        0.05850000       0.12450000      -0.00670000
N        0.69340000      -0.28680000      -1.25870000
C       -0.04470000      -0.61590000      -2.35970000
C        0.75750000      -1.09710000      -3.55820000
O       -1.26100000      -0.54220000      -2.37380000
C        0.79360000      -0.43200000       1.12870000
C        1.42240000      -0.86150000       2.05840000
H        0.90810000       2.13250000       0.08150000
H       -0.66260000       2.02070000      -0.75230000
H       -0.58250000       1.93210000       1.02270000
H       -0.94950000      -0.30410000      -0.03950000
H        1.69510000      -0.38300000      -1.27070000
H        0.60910000      -2.17540000      -3.67140000
H        0.36760000      -0.61530000      -4.45700000
H        1.82910000      -0.89830000      -3.47580000
H        1.95930000      -1.25380000       2.88660000
