18
Properties=species:S:1:pos:R:3 gdb_10925=T pbc="F F F"
C       -0.12260000       1.58700000      -0.03690000
C       -0.01750000       0.06980000      -0.04560000
C        0.76700000      -0.59710000      -1.18120000
O        2.14070000      -0.17590000      -1.04920000
C        1.67910000      -1.29190000      -0.25540000
C        2.43680000      -2.57600000      -0.32970000
C        1.00290000      -0.62150000       0.95870000
O        1.82640000       0.19580000       1.74380000
H        0.84510000       2.04770000      -0.25330000
H       -0.83600000       1.93530000      -0.79120000
H       -0.45730000       1.94830000       0.94010000
H       -1.00480000      -0.39200000       0.06400000
H        0.44140000      -0.87830000      -2.17700000
H        2.70400000      -2.80670000      -1.36440000
H        3.35930000      -2.51320000       0.25790000
H        1.83930000      -3.40060000       0.07220000
H        0.50810000      -1.32440000       1.63390000
H        2.37990000       0.68640000       1.12250000
