16
Properties=species:S:1:pos:R:3 gdb_8559=T pbc="F F F"
O       -0.08470000       1.31610000       0.12980000
C        0.04800000      -0.06050000       0.01430000
C        0.90840000      -0.88260000      -0.93240000
C        0.02290000      -2.07400000      -0.45310000
C        0.38210000      -2.27180000       1.05450000
C       -0.27960000      -0.92440000       1.24880000
O       -0.58450000      -0.33070000       2.45240000
C       -1.10080000      -1.04180000      -0.02640000
H        0.75000000       1.66860000       0.46280000
H        0.71270000      -0.62740000      -1.97820000
H        1.98910000      -0.95160000      -0.75670000
H       -0.13990000      -2.93280000      -1.09780000
H       -0.20090000      -3.08030000       1.50490000
H        1.44140000      -2.38570000       1.31450000
H       -0.67560000       0.61680000       2.27940000
H       -2.14760000      -0.93460000      -0.26910000
