13
Properties=species:S:1:pos:R:3 gdb_126081=T pbc="F F F"
C       -0.43340000       1.50030000       0.08030000
C        0.24160000       0.15810000      -0.03970000
O        0.98770000       0.06090000      -1.25300000
C        2.19720000      -0.55350000      -1.00870000
C        2.25530000      -0.63940000       0.44260000
O        1.17930000      -0.01860000       1.03590000
N        3.20070000      -1.16890000       1.13910000
N        4.05130000      -1.64510000       1.73560000
O        2.96680000      -0.89030000      -1.85920000
H        0.31150000       2.29770000       0.03140000
H       -1.15190000       1.62580000      -0.73330000
H       -0.96430000       1.55900000       1.03380000
H       -0.47730000      -0.67430000      -0.01600000
