19
Properties=species:S:1:pos:R:3 gdb_59592=T pbc="F F F"
C        0.02210000       1.56150000      -0.26740000
C        0.04170000       0.06810000       0.06230000
O        0.78890000      -0.20660000       1.24390000
C       -1.36860000      -0.54790000       0.16550000
C       -1.41310000      -2.09000000       0.12670000
C       -2.39450000      -2.46320000       1.20680000
C       -2.76780000      -1.41830000       1.95580000
C       -2.08270000      -0.19590000       1.48770000
O       -2.04360000       0.87800000       2.05340000
H        1.04540000       1.94550000      -0.30090000
H       -0.44580000       1.74070000      -1.24160000
H       -0.54330000       2.11270000       0.48840000
H        0.58150000      -0.46240000      -0.73200000
H        0.41370000       0.34310000       1.94310000
H       -1.99330000      -0.14750000      -0.64370000
H       -1.70020000      -2.49380000      -0.85030000
H       -0.42620000      -2.50790000       0.36570000
H       -2.71990000      -3.48740000       1.35780000
H       -3.41980000      -1.42670000       2.81960000
