21
Properties=species:S:1:pos:R:3 gdb_36901=T pbc="F F F"
C        0.00270000       1.50540000       0.39660000
C       -0.05260000       0.00740000       0.21370000
C       -1.26870000      -0.69110000      -0.21910000
O       -0.18810000      -0.47560000      -1.12860000
C        1.37070000       2.09420000       0.04950000
C        1.86090000       2.08780000      -1.44330000
C        2.08190000       3.60340000      -1.35700000
C        0.78710000       4.29010000      -1.03430000
C        1.54910000       3.62010000       0.07840000
H       -0.77820000       1.96240000      -0.22170000
H       -0.23870000       1.74080000       1.44280000
H        0.66690000      -0.56200000       0.80690000
H       -1.43680000      -1.72740000       0.07140000
H       -2.17150000      -0.11560000      -0.42170000
H        2.13170000       1.62120000       0.68030000
H        2.77880000       1.51190000      -1.57720000
H        1.13080000       1.75310000      -2.18590000
H        2.92650000       4.14050000      -1.77090000
H        0.82300000       5.37490000      -1.01870000
H       -0.15480000       3.88700000      -1.39920000
H        1.90580000       4.18570000       0.93180000
