19
Properties=species:S:1:pos:R:3 gdb_108499=T pbc="F F F"
O       -0.03060000       1.40920000       0.32530000
C        0.04410000       0.01970000       0.06640000
C       -1.35190000      -0.54710000      -0.13290000
O       -2.14230000      -0.24160000       1.06600000
C       -2.51630000      -1.63080000       1.20860000
C       -1.64670000      -2.06570000       0.00950000
C       -2.37200000      -2.50840000      -1.27540000
C       -2.60430000      -1.20490000      -2.00970000
C       -2.05360000      -0.15310000      -1.40330000
H       -0.65360000       1.50270000       1.05730000
H        0.64930000      -0.10940000      -0.83730000
H        0.53970000      -0.51810000       0.89080000
H       -2.22130000      -2.02890000       2.18620000
H       -3.59580000      -1.77810000       1.07450000
H       -0.79970000      -2.69930000       0.27630000
H       -1.76590000      -3.20130000      -1.87330000
H       -3.31130000      -3.03510000      -1.06110000
H       -3.16050000      -1.16290000      -2.94070000
H       -2.08350000       0.87390000      -1.74610000
