19
Properties=species:S:1:pos:R:3 gdb_97789=T pbc="F F F"
C        0.00950000       1.66300000       0.00540000
C        0.01980000       0.12360000      -0.03110000
C       -1.31960000      -0.45600000      -0.03030000
C       -2.43370000      -0.91650000      -0.02900000
C       -3.77160000      -1.43950000      -0.01670000
C       -4.31950000      -2.19960000      -1.19140000
C       -4.04600000      -2.95220000       0.09640000
C       -2.91000000      -3.90260000       0.13590000
O       -2.91130000      -4.93250000       0.76410000
H        1.03260000       2.05000000       0.00330000
H       -0.51540000       2.06910000      -0.86340000
H       -0.49470000       2.02690000       0.90470000
H        0.56150000      -0.21770000      -0.92270000
H        0.58420000      -0.25960000       0.82880000
H       -4.48960000      -0.83690000       0.53250000
H       -5.35630000      -2.04960000      -1.46820000
H       -3.64400000      -2.37650000      -2.02130000
H       -4.89380000      -3.24400000       0.70570000
H       -2.03330000      -3.59620000      -0.47640000
