19
Properties=species:S:1:pos:R:3 gdb_124466=T pbc="F F F"
C       -0.06130000       1.55160000      -0.01590000
C        0.00450000       0.01410000       0.00760000
C        0.73550000      -0.47940000       1.26430000
O       -1.31370000      -0.52530000       0.10950000
C        0.66120000      -0.53240000      -1.24130000
C        0.38020000      -1.67180000      -1.97280000
C        1.32830000      -1.67590000      -3.01780000
N        2.14290000      -0.62740000      -2.95560000
N        1.71640000       0.05080000      -1.86980000
H        0.93450000       2.00780000       0.01250000
H       -0.57190000       1.90880000      -0.91610000
H       -0.61470000       1.90060000       0.85960000
H        0.22910000      -0.10570000       2.15910000
H        0.73370000      -1.57120000       1.29020000
H        1.77230000      -0.13190000       1.27330000
H       -1.77840000      -0.31590000      -0.70870000
H       -0.39420000      -2.39060000      -1.76290000
H        1.44880000      -2.39830000      -3.81200000
H        2.18470000       0.90560000      -1.62200000
