16
Properties=species:S:1:pos:R:3 gdb_25932=T pbc="F F F"
N       -0.05690000       1.34600000      -0.07970000
C        0.05680000      -0.00800000       0.11080000
O        1.12080000      -0.55550000       0.33720000
N       -1.16060000      -0.69920000       0.06450000
C       -2.44960000      -0.13490000       0.14280000
C       -3.34890000      -1.15340000       0.08680000
C       -2.63190000      -2.38520000      -0.04240000
C       -1.29150000      -2.08790000      -0.04790000
N       -0.18830000      -2.89600000      -0.25200000
H        0.82900000       1.81660000      -0.17580000
H       -0.81290000       1.69850000      -0.64390000
H       -2.57530000       0.91260000       0.35200000
H       -4.42120000      -1.04490000       0.15010000
H       -3.05160000      -3.37500000      -0.13260000
H       -0.36210000      -3.86600000      -0.03600000
H        0.65950000      -2.52740000       0.16010000
