21
Properties=species:S:1:pos:R:3 gdb_86807=T pbc="F F F"
C       -0.23720000       1.49800000      -0.05610000
C       -0.05730000      -0.01760000      -0.02840000
C        1.15480000      -0.53640000      -0.86090000
C        1.98190000      -0.60240000       0.45020000
C        0.64980000      -0.55730000       1.25180000
N        2.89280000      -1.70240000       0.63640000
C        4.13240000      -1.53130000       1.21260000
N        4.80700000      -2.72690000       1.45390000
O        4.59830000      -0.44720000       1.51030000
H        0.69800000       2.01920000       0.17800000
H       -0.56650000       1.83740000      -1.04430000
H       -0.98620000       1.81930000       0.67580000
H       -1.00950000      -0.50210000      -0.26130000
H        0.97040000      -1.53710000      -1.26560000
H        1.53320000       0.10030000      -1.66560000
H        2.57010000       0.30160000       0.60750000
H        0.62370000       0.06310000       2.15170000
H        0.30610000      -1.56450000       1.51180000
H        2.49970000      -2.63090000       0.63510000
H        4.65030000      -3.48480000       0.80550000
H        5.78250000      -2.57100000       1.66000000
