18
Properties=species:S:1:pos:R:3 gdb_34038=T pbc="F F F"
N        0.03910000      -1.12880000       0.03290000
C        0.02010000       0.02780000       0.00310000
C       -0.01630000       1.46780000      -0.02830000
C        0.48360000       2.13140000      -1.30030000
C        1.32840000       2.19610000      -0.05980000
C        1.45480000       3.49700000       0.73650000
O        0.42340000       3.70080000       1.68410000
C       -0.86090000       3.56320000       1.11120000
C       -1.15150000       2.09640000       0.77870000
H        0.80070000       1.48520000      -2.11000000
H       -0.03100000       3.03340000      -1.61730000
H        2.20690000       1.56090000      -0.04690000
H        2.38490000       3.48780000       1.30990000
H        1.49690000       4.35340000       0.04270000
H       -1.57780000       3.92530000       1.85270000
H       -0.95610000       4.20330000       0.21780000
H       -2.10130000       2.00500000       0.23980000
H       -1.25310000       1.54510000       1.71860000
