19
Properties=species:S:1:pos:R:3 gdb_46188=T pbc="F F F"
O       -0.07650000       0.07200000      -0.42090000
C       -0.07920000       1.22910000      -0.10270000
C       -1.17000000       2.17740000       0.42710000
C       -0.10720000       3.31600000       0.47600000
C        0.97810000       2.33870000      -0.06170000
C        2.41130000       2.16550000       0.53600000
C        2.78710000       1.40320000      -0.76810000
C        1.97300000       2.64830000      -1.22610000
C        2.79360000       3.48260000      -0.19990000
H       -1.99810000       2.32500000      -0.27190000
H       -1.58660000       1.86950000       1.39040000
H       -0.32330000       4.15840000      -0.18470000
H        0.08950000       3.70180000       1.47870000
H        2.64360000       1.88400000       1.56440000
H        3.84840000       1.40760000      -1.03080000
H        2.32580000       0.42850000      -0.92040000
H        1.69620000       2.92750000      -2.24400000
H        2.34220000       4.40780000       0.16590000
H        3.85500000       3.61790000      -0.42690000
