16
Properties=species:S:1:pos:R:3 gdb_32616=T pbc="F F F"
C       -0.01230000       1.59000000       0.00860000
C        0.00370000       0.06120000       0.00340000
N       -1.33790000      -0.52510000       0.01280000
C       -2.00400000      -0.81570000       1.18090000
N       -3.20000000      -1.26370000       1.24630000
C       -3.92030000      -1.43800000       0.03170000
O       -5.08530000      -1.73960000       0.04060000
N       -3.22090000      -1.25490000      -1.19390000
C       -2.02390000      -0.80730000      -1.14570000
H        1.01170000       1.97470000       0.00130000
H       -0.53140000       1.98070000      -0.87150000
H       -0.51650000       1.97480000       0.90000000
H        0.52420000      -0.31800000      -0.88130000
H        0.53910000      -0.32380000       0.87670000
H       -1.42670000      -0.65090000       2.09140000
H       -1.46230000      -0.63600000      -2.06470000
