19
Properties=species:S:1:pos:R:3 gdb_33455=T pbc="F F F"
C        0.13540000      -1.17970000      -0.13170000
C        0.08990000       0.02110000      -0.06600000
C        0.02110000       1.45790000       0.00130000
C        0.42840000       2.11460000       1.31640000
C        1.33970000       2.21380000       0.13020000
C       -1.09070000       2.10950000      -0.79830000
C       -1.27990000       1.72270000      -2.28420000
O       -2.67860000       1.44130000      -2.07400000
C       -2.53840000       1.58570000      -0.64600000
H        0.17760000      -2.23920000      -0.18810000
H       -0.12780000       2.99610000       1.61700000
H        0.71470000       1.45950000       2.13010000
H        2.24980000       1.62660000       0.13170000
H        1.41280000       3.16370000      -0.38840000
H       -1.03140000       3.19260000      -0.66230000
H       -1.12490000       2.51500000      -3.02560000
H       -0.72290000       0.82670000      -2.58640000
H       -2.61170000       0.62120000      -0.12770000
H       -3.27480000       2.28100000      -0.22690000
