23
Properties=species:S:1:pos:R:3 gdb_84273=T pbc="F F F"
C       -0.14700000       1.57720000      -0.09590000
C        0.04790000       0.06040000      -0.00860000
C        0.87910000      -0.52680000      -1.15460000
C        1.52560000      -1.59830000      -0.71330000
C        2.76800000      -2.45120000      -0.82200000
C        2.89340000      -2.26520000       0.73790000
C        1.38430000      -1.81440000       0.76700000
C        0.78970000      -0.47490000       1.28390000
C        1.85180000       0.48820000       1.82260000
H        0.80670000       2.11110000      -0.15180000
H       -0.72200000       1.83640000      -0.99130000
H       -0.69820000       1.95920000       0.77020000
H       -0.95640000      -0.39170000      -0.02100000
H        0.94240000      -0.06370000      -2.13340000
H        2.55750000      -3.49400000      -1.08380000
H        3.58390000      -2.09100000      -1.45380000
H        3.15670000      -3.15260000       1.31850000
H        3.58070000      -1.45500000       0.98780000
H        0.74610000      -2.66720000       1.03130000
H        0.05730000      -0.65160000       2.08000000
H        2.59400000       0.74260000       1.05850000
H        1.40280000       1.42220000       2.17250000
H        2.38310000       0.04020000       2.66850000
