21
Properties=species:S:1:pos:R:3 gdb_15432=T pbc="F F F"
C       -0.21410000       1.58440000      -0.29110000
C       -0.48750000       0.08330000      -0.36370000
N        0.44930000      -0.55110000      -1.28510000
C        1.71400000      -1.02980000      -0.73750000
C        0.69310000      -1.99650000      -1.23320000
C       -0.01270000      -2.95040000      -0.29110000
C       -1.36070000      -3.42220000      -0.82830000
O       -1.87650000      -4.37950000       0.08380000
H        0.78900000       1.77880000       0.10250000
H       -0.27900000       2.03520000      -1.28520000
H       -0.93690000       2.07770000       0.36630000
H       -0.45050000      -0.34070000       0.65380000
H       -1.50140000      -0.08950000      -0.74520000
H        2.60810000      -0.80950000      -1.31540000
H        1.84990000      -0.97730000       0.34340000
H        0.85140000      -2.41650000      -2.22750000
H        0.62140000      -3.83340000      -0.14340000
H       -0.15780000      -2.50630000       0.69780000
H       -2.04330000      -2.56480000      -0.93720000
H       -1.22460000      -3.85760000      -1.83200000
H       -2.73010000      -4.67790000      -0.24310000
