19
Properties=species:S:1:pos:R:3 gdb_62932=T pbc="F F F"
C       -0.07770000       1.54290000      -0.02310000
C        0.00990000       0.02530000      -0.02420000
O       -1.26490000      -0.46020000      -0.31140000
C        1.22640000      -0.57220000      -0.83750000
C        2.07670000      -0.41140000       0.45150000
C        0.73920000      -0.63100000       1.20110000
O        0.36680000      -2.02310000       1.18560000
C        0.96550000      -2.71220000       0.10030000
O        0.95180000      -1.95600000      -1.08820000
H        0.88740000       2.02920000       0.13280000
H       -0.47970000       1.88000000      -0.98340000
H       -0.76470000       1.87320000       0.76190000
H       -1.26970000      -1.38950000      -0.05010000
H        1.53770000      -0.12630000      -1.78350000
H        2.90160000      -1.10100000       0.62800000
H        2.44070000       0.60760000       0.57550000
H        0.58330000      -0.26570000       2.21780000
H        1.99500000      -2.99440000       0.36440000
H        0.37770000      -3.61710000      -0.07480000
