15
Properties=species:S:1:pos:R:3 gdb_123661=T pbc="F F F"
C       -0.01530000       1.46570000       0.11400000
C        1.31040000       0.73570000      -0.01990000
N        2.06670000       0.34860000       1.16540000
C        1.20930000      -0.42470000       1.95170000
C        1.05680000      -1.07340000       3.15510000
N       -0.14750000      -1.72910000       3.11300000
N       -0.75010000      -1.51640000       1.97630000
N        0.08410000      -0.72050000       1.26580000
C        0.00560000      -0.04100000       0.00560000
H       -0.29300000       1.89820000       1.06870000
H       -0.34870000       2.01440000      -0.75960000
H        1.89250000       0.85180000      -0.92620000
H        2.56020000       1.09340000       1.63900000
H        1.70110000      -1.12400000       4.01570000
H       -0.41190000      -0.58610000      -0.83010000
