15
Properties=species:S:1:pos:R:3 gdb_127449=T pbc="F F F"
C       -0.02470000       1.39930000      -0.05900000
N       -0.00860000      -0.04580000       0.01450000
N       -0.03120000      -0.79160000      -1.11570000
C        0.04350000      -2.05680000      -0.68750000
C        0.12240000      -2.13140000       0.72880000
C        0.08860000      -0.81320000       1.12640000
O        0.13230000      -0.19940000       2.32940000
C        0.03400000      -3.14590000      -1.59530000
C        0.02960000      -4.09530000      -2.33500000
H        0.98990000       1.80490000      -0.13410000
H       -0.59070000       1.68490000      -0.94580000
H       -0.50360000       1.80110000       0.83520000
H        0.18680000      -3.01240000       1.34490000
H        0.14760000      -0.87060000       3.01870000
H        0.02390000      -4.92380000      -2.99870000
