17
Properties=species:S:1:pos:R:3 gdb_130452=T pbc="F F F"
N        0.29080000       1.35860000       1.32550000
H        0.57520000       0.38810000       1.41390000
H        0.00190000       2.64340000       3.08400000
H        0.94290000       1.78690000       0.67340000
C       -1.07800000       1.43630000       0.78040000
C       -1.59520000       2.88270000       0.81500000
C       -1.74890000       3.43040000       2.19570000
N       -2.74290000       4.14740000       2.64830000
N       -2.46930000       4.45170000       3.98070000
C       -1.32450000       3.89300000       4.25700000
O       -0.67620000       3.91300000       5.43070000
N       -0.80740000       3.24440000       3.18360000
H       -1.15210000       1.05670000      -0.24970000
H       -1.72040000       0.80490000       1.40360000
H       -0.91000000       3.51410000       0.23010000
H       -2.57050000       2.94580000       0.32550000
H       -1.23270000       4.42020000       6.03620000
