19
Properties=species:S:1:pos:R:3 gdb_121185=T pbc="F F F"
C       -0.03790000       1.52140000       0.20850000
C       -0.26880000       0.05050000      -0.12400000
N        0.87490000      -0.50160000      -0.84770000
C        0.78380000      -1.89070000      -1.16820000
C       -0.07190000      -2.45090000      -2.34650000
O        1.06510000      -3.19860000      -2.84490000
C        1.97140000      -2.53280000      -1.95180000
C        2.83410000      -1.56910000      -2.64820000
N        3.49010000      -0.79230000      -3.19820000
H        0.87740000       1.64390000       0.79390000
H        0.06160000       2.12000000      -0.70410000
H       -0.87860000       1.92500000       0.77980000
H       -0.38450000      -0.52710000       0.80230000
H       -1.21840000      -0.05840000      -0.67860000
H        1.07850000       0.05300000      -1.67390000
H        0.59560000      -2.45240000      -0.24870000
H       -0.91090000      -3.11010000      -2.10400000
H       -0.39790000      -1.68350000      -3.06150000
H        2.59880000      -3.23770000      -1.39650000
