15
Properties=species:S:1:pos:R:3 gdb_9495=T pbc="F F F"
C       -0.33320000       1.46510000       0.09840000
C        0.17220000       0.04860000      -0.05020000
O        1.40730000      -0.04490000      -0.79620000
C        2.04200000      -0.82620000       0.22490000
C        0.83860000      -0.63100000       1.18980000
O        1.03900000       0.28720000       2.23590000
C        0.20030000      -1.85810000       1.67680000
N       -0.28160000      -2.82800000       2.08100000
H        0.40480000       2.09400000       0.59810000
H       -0.53750000       1.87450000      -0.89550000
H       -1.26210000       1.48090000       0.67650000
H       -0.59430000      -0.59770000      -0.49660000
H        2.22410000      -1.86160000      -0.08640000
H        2.96950000      -0.37080000       0.58950000
H        1.51330000      -0.15300000       2.95060000
