20
Properties=species:S:1:pos:R:3 gdb_94103=T pbc="F F F"
C       -0.00500000       1.37390000       0.05590000
C        0.00280000      -0.10990000      -0.29390000
C        1.21270000      -0.55040000      -1.15660000
C        1.71950000      -1.82680000      -0.45200000
C        1.35010000      -1.50000000       0.99680000
O        0.05800000      -0.91430000       0.90330000
N        1.02400000      -3.02750000      -0.89220000
C        1.61340000      -4.00000000      -1.63600000
O        2.75870000      -3.97930000      -2.03590000
H        0.91690000       1.65510000       0.57610000
H       -0.08270000       1.98190000      -0.85200000
H       -0.85210000       1.61250000       0.70460000
H       -0.94210000      -0.36670000      -0.78870000
H        0.94880000      -0.73320000      -2.19940000
H        1.99560000       0.21500000      -1.13600000
H        2.78310000      -2.00300000      -0.61280000
H        1.28130000      -2.38060000       1.64060000
H        2.08270000      -0.80220000       1.43190000
H        0.06640000      -3.15040000      -0.60000000
H        0.91650000      -4.83710000      -1.84150000
