15
Properties=species:S:1:pos:R:3 gdb_3584=T pbc="F F F"
C        0.09930000       1.54930000       0.08180000
C        1.27510000       0.64670000      -0.01960000
C        2.00680000       0.29480000       1.25450000
N        1.43750000       0.90590000       2.47700000
C        1.06730000      -0.47550000       2.11160000
C       -0.25310000      -0.58370000       1.35650000
N       -0.09810000       0.09270000       0.04550000
H       -0.03140000       2.07060000       1.02440000
H       -0.26400000       2.06910000      -0.80110000
H        1.81380000       0.51960000      -0.95440000
H        3.06880000       0.08000000       1.21400000
H        2.13380000       0.88710000       3.21860000
H        1.39410000      -1.29540000       2.74490000
H       -0.47730000      -1.63880000       1.16350000
H       -1.09230000      -0.15560000       1.91390000
