20
Properties=species:S:1:pos:R:3 gdb_79824=T pbc="F F F"
C       -0.35060000       1.53100000      -0.04770000
C        0.05710000       0.06900000      -0.06720000
N        1.10800000      -0.38140000      -1.05920000
C        2.46280000      -0.18090000      -0.46520000
C        2.67050000       0.77450000       0.69390000
O        1.73660000       0.36600000       1.69620000
C        0.84450000      -0.58520000       1.10720000
C        0.11760000      -1.32790000       2.19890000
C        1.65160000      -1.31250000       0.00060000
H       -0.57800000       1.86420000      -1.06580000
H       -1.25330000       1.66340000       0.55810000
H        0.42210000       2.18010000       0.36650000
H       -0.81910000      -0.54790000      -0.29850000
H        3.25750000      -0.31340000      -1.19110000
H        3.68990000       0.67990000       1.09120000
H        2.51310000       1.82460000       0.41800000
H       -0.46140000      -0.63170000       2.81330000
H       -0.56730000      -2.06680000       1.77360000
H        0.82970000      -1.84260000       2.85090000
H        1.81980000      -2.37110000      -0.15540000
