16
Properties=species:S:1:pos:R:3 gdb_33630=T pbc="F F F"
C       -0.21200000      -1.36730000       0.04640000
C       -0.12020000      -0.16900000       0.09490000
C        0.01910000       1.24280000       0.16800000
C       -0.82480000       2.27200000       0.80060000
C        0.06270000       3.03830000       1.80040000
C        1.37420000       3.01760000       1.03100000
C        1.28830000       2.11360000       0.03080000
C        0.72520000       2.65740000      -1.28100000
N       -0.65060000       2.23790000      -0.73670000
H       -0.29760000      -2.42470000      -0.00050000
H       -1.87080000       2.08070000       1.02160000
H       -0.23060000       4.08110000       1.96550000
H        0.01110000       2.53310000       2.77520000
H        1.92570000       3.94440000       0.89670000
H        0.85990000       3.72290000      -1.48370000
H        0.87580000       2.06460000      -2.18730000
