22
Properties=species:S:1:pos:R:3 gdb_122117=T pbc="F F F"
C        0.11730000       1.52490000       0.10420000
C       -0.04940000       0.01240000      -0.07290000
N        0.64150000      -0.52230000      -1.23800000
C        2.08830000      -0.71760000      -1.19880000
C        2.48820000      -2.12180000      -0.72660000
C        4.00490000      -2.31750000      -0.70390000
O        4.38540000      -3.59960000      -0.23240000
C       -0.03660000      -0.90130000      -2.35520000
O        0.47020000      -1.37750000      -3.35180000
H        1.16940000       1.80460000       0.21310000
H       -0.28790000       2.06190000      -0.75850000
H       -0.41180000       1.86150000       1.00130000
H        0.30400000      -0.51390000       0.82260000
H       -1.11190000      -0.23150000      -0.17690000
H        2.46690000      -0.54830000      -2.21050000
H        2.52240000       0.04520000      -0.54380000
H        2.09100000      -2.31860000       0.27620000
H        2.03500000      -2.85250000      -1.40760000
H        4.42260000      -2.11700000      -1.70380000
H        4.46890000      -1.60210000      -0.01480000
H        4.04130000      -4.25210000      -0.85090000
H       -1.12680000      -0.72470000      -2.25980000
