21
Properties=species:S:1:pos:R:3 gdb_120771=T pbc="F F F"
C       -0.37740000       1.36460000      -0.00480000
O       -0.21730000      -0.03130000      -0.07600000
C        0.81330000      -0.42020000      -0.95750000
C        0.88880000      -1.92380000      -0.95010000
O        0.11100000      -2.63690000      -1.91800000
C        1.53840000      -2.71510000      -2.00680000
C        2.19900000      -2.14720000      -3.21770000
C        3.67070000      -2.41500000      -3.43950000
C        2.64680000      -3.08400000      -4.31550000
H        0.53910000       1.86440000       0.34890000
H       -0.64650000       1.79670000      -0.98170000
H       -1.18460000       1.56510000       0.70360000
H        0.61500000      -0.05390000      -1.97600000
H        1.77990000       0.00350000      -0.62960000
H        0.84770000      -2.34710000       0.05510000
H        1.94270000      -3.68620000      -1.70690000
H        1.82710000      -1.17970000      -3.53570000
H        4.27470000      -1.61820000      -3.85820000
H        4.18960000      -3.02530000      -2.70730000
H        2.47040000      -4.14500000      -4.17260000
H        2.54330000      -2.74980000      -5.34140000
