17
Properties=species:S:1:pos:R:3 gdb_125166=T pbc="F F F"
C       -0.01680000       1.52310000       0.11890000
C        0.00760000       0.04070000      -0.06710000
C       -0.00020000      -0.77080000      -1.17560000
C       -0.03550000      -0.82050000      -2.67540000
C       -0.00790000      -2.32680000      -2.92510000
C        0.03630000      -3.03450000      -1.77990000
C        0.04240000      -2.09160000      -0.66800000
N        0.07550000      -2.14370000       0.65620000
N        0.05270000      -0.82710000       0.99690000
H        0.90330000       1.89180000       0.58750000
H       -0.11840000       2.01990000      -0.84810000
H       -0.85690000       1.84120000       0.74700000
H       -0.93490000      -0.36350000      -3.11010000
H        0.82030000      -0.32440000      -3.15270000
H       -0.02310000      -2.74440000      -3.92420000
H        0.06280000      -4.11230000      -1.69180000
H        0.06840000      -0.58320000       1.97290000
