17
Properties=species:S:1:pos:R:3 gdb_27290=T pbc="F F F"
O        0.03290000       1.38240000       0.09740000
C        0.04440000       0.01590000       0.01850000
C        0.04610000      -0.78270000      -1.10000000
N        0.05590000      -0.66550000      -2.51410000
C        0.44430000      -2.02650000      -2.96380000
C        0.04040000      -3.00490000      -1.82000000
N        0.07290000      -2.09730000      -0.69030000
C        0.05830000      -2.15930000       0.67620000
C        0.03880000      -0.85880000       1.14530000
H        0.29310000       1.73070000      -0.76190000
H       -0.87400000      -0.44390000      -2.86430000
H       -0.02260000      -2.27000000      -3.91990000
H        1.53120000      -2.05320000      -3.09290000
H       -0.96290000      -3.42920000      -1.96490000
H        0.75180000      -3.82810000      -1.71120000
H        0.09990000      -3.09720000       1.20510000
H        0.04960000      -0.55080000       2.17920000
