21
Properties=species:S:1:pos:R:3 gdb_101360=T pbc="F F F"
C        0.07890000       1.48780000      -0.11340000
C        0.04490000      -0.03260000       0.08160000
C        0.72200000      -0.43200000       1.40150000
O        2.07710000      -0.01510000       1.48530000
C       -1.37910000      -0.58550000       0.01790000
C       -2.16450000      -0.50250000      -1.34830000
C       -2.29090000      -2.02990000      -1.31530000
O       -0.96170000      -2.56570000      -1.27240000
C       -1.55430000      -2.11810000      -0.04620000
H        1.10150000       1.85980000      -0.01330000
H       -0.30120000       1.77760000      -1.09770000
H       -0.53390000       1.99220000       0.64390000
H        0.60910000      -0.50710000      -0.73440000
H        0.21430000       0.05490000       2.24340000
H        0.63670000      -1.51910000       1.55370000
H        2.56590000      -0.47770000       0.79680000
H       -1.98870000      -0.16310000       0.82550000
H       -3.11950000       0.01920000      -1.25490000
H       -1.61510000      -0.10780000      -2.20680000
H       -3.06430000      -2.66600000      -1.72970000
H       -1.61900000      -2.83960000       0.76060000
