19
Properties=species:S:1:pos:R:3 gdb_40630=T pbc="F F F"
C        0.08900000       1.50630000       0.02530000
O        1.08530000       0.55470000      -0.35430000
C       -0.21200000       0.06760000       0.00760000
C       -0.39210000      -0.73140000       1.27140000
C        0.03860000      -2.24360000       1.26240000
C        1.49080000      -1.74570000       1.54850000
C        0.70610000      -0.70420000       2.37710000
O        0.10780000      -1.48930000       3.42230000
C       -0.39120000      -2.63160000       2.68190000
H        0.26150000       2.00520000       0.97770000
H       -0.27470000       2.14710000      -0.77650000
H       -0.78390000      -0.30420000      -0.84580000
H       -1.40580000      -0.54790000       1.64790000
H       -0.21100000      -2.92290000       0.44740000
H        2.15680000      -2.41030000       2.10430000
H        1.98330000      -1.31870000       0.67850000
H        1.13620000       0.20260000       2.79880000
H       -1.47750000      -2.71340000       2.80720000
H        0.08110000      -3.55170000       3.04570000
