17
Properties=species:S:1:pos:R:3 gdb_105560=T pbc="F F F"
C       -0.23700000       1.53410000      -0.02180000
C        0.21300000       0.07710000      -0.15030000
C        0.78140000      -0.48510000       1.15830000
O       -0.23230000      -0.54990000       2.21290000
C       -0.18850000      -1.98460000       2.32960000
C        0.85200000      -2.04360000       1.21150000
O        1.43800000      -2.88480000       0.60990000
C        1.99560000       0.17960000       1.60030000
C        3.01810000       0.69870000       1.96140000
H        0.60420000       2.18370000       0.23640000
H       -0.66480000       1.88660000      -0.96460000
H       -0.99660000       1.63360000       0.75830000
H       -0.63220000      -0.55470000      -0.44660000
H        0.98350000      -0.03120000      -0.92160000
H        0.17350000      -2.32430000       3.30850000
H       -1.14870000      -2.46710000       2.10940000
H        3.91760000       1.16360000       2.28300000
