23
Properties=species:S:1:pos:R:3 gdb_62876=T pbc="F F F"
C       -0.21640000       1.64740000       0.09330000
C       -0.15130000       0.14090000       0.36910000
C       -1.56540000      -0.44130000       0.21130000
C        1.16480000      -0.54110000      -0.17900000
O        1.92040000       0.27310000       0.80110000
C        0.77560000      -0.29480000       1.55030000
C        1.11520000      -1.68680000       0.88350000
C        0.12360000      -2.85390000       0.74890000
C        2.47200000      -2.25400000       1.31620000
H        0.76760000       2.11150000       0.11980000
H       -0.66840000       1.82580000      -0.88970000
H       -0.85710000       2.14120000       0.83320000
H       -1.75310000      -0.77040000      -0.81690000
H       -1.78290000      -1.27390000       0.87760000
H       -2.29990000       0.33990000       0.43040000
H        1.54790000      -0.56370000      -1.20320000
H        0.70630000      -0.04400000       2.61260000
H       -0.61990000      -2.72060000      -0.03460000
H        0.67700000      -3.76700000       0.50840000
H       -0.40440000      -3.04440000       1.69000000
H        2.35160000      -2.84860000       2.22980000
H        2.86430000      -2.92850000       0.54620000
H        3.20440000      -1.47000000       1.49830000
