17
Properties=species:S:1:pos:R:3 gdb_122046=T pbc="F F F"
O        0.09090000       1.42100000      -0.48480000
C        0.01450000       0.09030000      -0.01720000
C       -1.42590000      -0.38330000       0.09070000
O       -1.96840000      -0.31600000      -1.22830000
C       -3.34940000      -0.62460000      -1.29860000
C       -4.18120000       0.54370000      -0.72280000
O       -5.08110000       0.41020000       0.05820000
C       -3.73210000      -0.80540000      -2.69280000
C       -4.09950000      -0.90480000      -3.83220000
H       -0.40480000       1.44280000      -1.31130000
H        0.57040000      -0.60210000      -0.66870000
H        0.47980000       0.06810000       0.97340000
H       -1.47680000      -1.41420000       0.47320000
H       -1.98530000       0.26990000       0.77600000
H       -3.58840000      -1.52500000      -0.71320000
H       -3.84820000       1.53350000      -1.10430000
H       -4.41300000      -1.01440000      -4.84150000
