16
Properties=species:S:1:pos:R:3 gdb_30000=T pbc="F F F"
C        0.00470000       1.47480000       0.02250000
N       -0.01130000       0.03160000       0.02270000
C       -0.03970000      -0.80140000      -1.10450000
C       -0.01950000      -2.12560000      -0.73340000
C        0.02650000      -2.13100000       0.69540000
C        0.03190000      -0.80630000       1.09580000
N        0.07260000      -0.79620000       2.46610000
C        0.09120000      -2.14250000       2.82470000
N        0.06400000      -2.96060000       1.80200000
H        0.94010000       1.86950000       0.43820000
H       -0.08830000       1.82900000      -1.00550000
H       -0.83330000       1.88230000       0.60050000
H       -0.07260000      -0.35050000      -2.08390000
H       -0.03880000      -2.96670000      -1.40810000
H        0.09310000      -0.01290000       3.09450000
H        0.12530000      -2.43150000       3.86480000
