20
Properties=species:S:1:pos:R:3 gdb_78560=T pbc="F F F"
C       -0.04120000       1.53620000       0.01070000
N        0.13050000       0.09050000       0.10840000
C        1.39130000      -0.56870000      -0.17750000
C        2.57460000       0.20800000       0.36560000
C        3.98190000       0.12240000      -0.01890000
O        3.20590000       1.29670000      -0.29670000
C        1.96480000       0.24790000       1.77790000
C        0.77680000      -0.57430000       1.21730000
C        0.05840000      -1.65840000       1.96440000
H        0.82270000       2.13310000       0.32720000
H       -0.25560000       1.78560000      -1.03270000
H       -0.90830000       1.82570000       0.61280000
H        1.42150000      -1.33540000      -0.94560000
H        4.75640000       0.24130000       0.73820000
H        4.27360000      -0.46020000      -0.89260000
H        2.55960000      -0.30920000       2.50660000
H        1.73170000       1.23430000       2.18810000
H       -0.55660000      -1.23690000       2.76850000
H       -0.60210000      -2.21000000       1.29070000
H        0.76570000      -2.35930000       2.42070000
