14
Properties=species:S:1:pos:R:3 gdb_24391=T pbc="F F F"
C       -0.01120000       1.49840000      -0.05270000
N        1.36290000       1.99800000       0.12160000
C        2.34920000       1.23530000       0.27030000
O        2.38850000      -0.15590000       0.30470000
C        1.14170000      -0.67100000       0.14780000
C       -0.02370000       0.00400000      -0.02310000
N       -1.06230000      -0.89400000      -0.14390000
C       -0.51100000      -2.08110000      -0.04490000
N        0.85220000      -2.00710000       0.13690000
H       -0.63270000       1.94070000       0.73730000
H       -0.39960000       1.90440000      -0.99620000
H        3.35890000       1.61380000       0.39810000
H       -1.02500000      -3.02840000      -0.09410000
H        1.50370000      -2.76680000       0.24030000
