20
Properties=species:S:1:pos:R:3 gdb_77379=T pbc="F F F"
C        0.02420000       1.64380000       0.04320000
C        0.09670000       0.12110000       0.02250000
C        0.76490000      -0.63870000      -1.12990000
C        0.35210000      -0.67950000      -2.56760000
C        1.23300000      -1.71720000      -0.22820000
N        2.24550000      -0.80160000      -0.83420000
C        2.47180000      -0.17070000       0.50860000
C        1.08190000      -0.67350000       0.94040000
O        0.75680000      -1.01220000       2.24440000
H        0.98990000       2.11160000      -0.16630000
H       -0.68440000       2.00570000      -0.70950000
H       -0.32560000       2.01150000       1.01560000
H       -0.90160000      -0.30710000       0.17290000
H        0.46160000       0.30460000      -3.03720000
H        0.97670000      -1.38510000      -3.12190000
H       -0.69450000      -0.98740000      -2.66650000
H        1.26150000      -2.79740000      -0.28590000
H        3.27700000      -0.71320000       1.01110000
H        2.69050000       0.90310000       0.50420000
H        0.53660000      -0.20780000       2.72720000
