17
Properties=species:S:1:pos:R:3 gdb_113604=T pbc="F F F"
C        0.27400000       0.89660000       0.44340000
O       -0.15370000      -0.02300000      -0.54920000
C       -1.37340000      -0.60050000      -0.26600000
C       -1.64970000      -1.91830000      -0.88960000
C       -1.43860000      -1.85130000       0.62830000
C       -0.25430000      -2.39140000       1.20760000
C        0.73940000      -2.85260000       1.72730000
C        1.85780000      -3.37020000       2.30050000
C        2.85120000      -3.83000000       2.81230000
H        1.22900000       1.30400000       0.10600000
H       -0.44600000       1.72020000       0.55980000
H        0.41200000       0.40280000       1.41300000
H       -2.19940000       0.10260000      -0.14200000
H       -2.64850000      -2.13650000      -1.24890000
H       -0.83990000      -2.35440000      -1.46190000
H       -2.33430000      -1.94430000       1.23690000
H        3.72440000      -4.23570000       3.25900000
