12
Properties=species:S:1:pos:R:3 gdb_128929=T pbc="F F F"
N        0.15610000      -0.99300000      -0.56950000
C        0.18380000       0.07530000      -0.13110000
C        0.22320000       1.43590000       0.42450000
N        1.52960000       2.06310000       0.24910000
C        1.76240000       2.61780000      -0.84910000
O        2.95160000       3.24730000      -1.13070000
C        2.79850000       3.72520000      -2.38290000
N        1.67580000       3.48290000      -2.93840000
O        0.96750000       2.74250000      -1.94840000
H       -0.59330000       2.01330000      -0.03010000
H        0.02060000       1.37000000       1.49760000
H        3.61430000       4.27080000      -2.83030000
