14
Properties=species:S:1:pos:R:3 gdb_7622=T pbc="F F F"
C       -1.15880000       0.55490000       0.09360000
C        0.34250000       0.47350000      -0.04200000
O        1.11930000       1.02870000       0.69820000
C        0.88710000      -0.34030000      -1.21450000
C        2.05300000      -1.29750000      -0.92720000
C        1.05140000      -2.37550000      -1.34290000
O        1.01370000      -3.55350000      -1.47050000
O        0.03220000      -1.47360000      -1.58660000
H       -1.60600000       0.91500000      -0.83990000
H       -1.57040000      -0.44510000       0.26390000
H       -1.41950000       1.21880000       0.91800000
H        1.02480000       0.32170000      -2.07650000
H        2.92320000      -1.21900000      -1.57960000
H        2.37530000      -1.33880000       0.11390000
