16
Properties=species:S:1:pos:R:3 gdb_19015=T pbc="F F F"
C       -0.08840000       1.54380000      -0.06450000
C        0.01820000       0.02980000       0.03090000
O        0.85600000      -0.48600000      -1.04300000
C        1.85360000      -1.18930000      -0.35720000
C        1.27700000      -1.93730000       0.88340000
O        2.52330000      -1.72490000       1.62250000
C        2.28640000      -0.44860000       0.94360000
C        0.75500000      -0.51350000       1.24860000
H        0.89210000       2.01480000       0.05510000
H       -0.49020000       1.83350000      -1.03930000
H       -0.75680000       1.93170000       0.71130000
H       -0.97760000      -0.42250000      -0.06980000
H        2.57900000      -1.65300000      -1.02190000
H        0.78230000      -2.90450000       0.96850000
H        2.99970000       0.35930000       1.10250000
H        0.38920000      -0.30830000       2.25300000
