14
Properties=species:S:1:pos:R:3 gdb_129890=T pbc="F F F"
N        0.14190000       1.36740000       0.12550000
C       -0.00320000      -0.01850000       0.01560000
C       -1.10600000      -0.82120000      -0.04760000
N       -0.61790000      -2.12610000      -0.03030000
N       -1.08140000      -3.40490000      -0.06630000
C        0.06780000      -4.08320000      -0.02740000
N        1.22580000      -3.35800000       0.02420000
C        0.73390000      -2.13010000       0.02070000
N        1.14140000      -0.82190000       0.03270000
H        0.56490000       1.78760000      -0.69650000
H       -0.74440000       1.82120000       0.30460000
H       -2.15120000      -0.58110000      -0.11840000
H        0.06780000      -5.16320000      -0.03710000
H        2.05730000      -0.49600000       0.28810000
