18
Properties=species:S:1:pos:R:3 gdb_112135=T pbc="F F F"
C        0.02110000       1.60420000      -0.05440000
C        0.02520000       0.07330000      -0.08630000
C       -1.36500000      -0.55700000       0.05230000
C       -1.35670000      -2.10120000      -0.00480000
C       -2.24960000      -2.56370000       1.13860000
O       -2.65080000      -3.67220000       1.35660000
C       -2.56540000      -1.32300000       2.00530000
O       -3.18930000      -1.29500000       3.03950000
N       -1.98580000      -0.27610000       1.34790000
H        1.02940000       1.99900000      -0.20680000
H       -0.62040000       2.01760000      -0.84050000
H       -0.33250000       1.99120000       0.90740000
H        0.45170000      -0.27200000      -1.03620000
H        0.66780000      -0.31940000       0.71150000
H       -2.00460000      -0.16170000      -0.75040000
H       -1.69810000      -2.50370000      -0.96070000
H       -0.34810000      -2.49350000       0.17170000
H       -2.11990000       0.66510000       1.68430000
