16
Properties=species:S:1:pos:R:3 gdb_14643=T pbc="F F F"
C       -0.37010000       1.00250000       0.61340000
C       -0.10280000      -0.35510000       0.15980000
C        0.13730000      -1.47330000      -0.22040000
C        0.36720000      -2.84560000      -0.68860000
N       -0.83670000      -3.67760000      -0.81870000
C       -1.55140000      -3.83450000       0.44670000
C       -2.76570000      -4.63220000       0.26360000
N       -3.73670000      -5.24100000       0.12060000
H        0.34310000       1.71070000       0.17800000
H       -1.37580000       1.32650000       0.32440000
H       -0.29510000       1.08240000       1.70330000
H        0.85860000      -2.82940000      -1.66780000
H        1.05830000      -3.36070000      -0.00870000
H       -1.46070000      -3.25470000      -1.49930000
H       -0.89680000      -4.35830000       1.15490000
H       -1.83270000      -2.87980000       0.92230000
