14
Properties=species:S:1:pos:R:3 gdb_131712=T pbc="F F F"
O        0.29700000       1.03520000       0.66590000
C       -0.02580000       0.07990000      -0.31150000
C       -1.44290000      -0.43440000      -0.17210000
N       -2.03130000      -0.26750000       1.02610000
C       -3.25570000      -0.73650000       1.15070000
C       -3.86220000      -1.37110000       0.05470000
O       -5.10880000      -1.85060000       0.16210000
N       -3.22960000      -1.51270000      -1.10050000
N       -1.99440000      -1.03430000      -1.22160000
H       -0.25700000       0.83890000       1.43320000
H        0.09290000       0.52770000      -1.30360000
H        0.65510000      -0.78870000      -0.27360000
H       -3.77460000      -0.62530000       2.09890000
H       -5.33250000      -2.24290000      -0.69550000
