14
Properties=species:S:1:pos:R:3 gdb_117025=T pbc="F F F"
C       -0.15250000       1.50010000       0.01280000
C       -0.01570000      -0.00780000       0.00250000
O       -1.35540000      -0.56930000       0.01270000
C       -1.42770000      -1.88960000       0.00530000
O       -0.51380000      -2.67320000      -0.00870000
C       -2.89090000      -2.36290000       0.01740000
O       -3.84520000      -1.63710000       0.03140000
C       -3.02530000      -3.82940000       0.01020000
N       -3.20260000      -4.97160000       0.00550000
H        0.84180000       1.95600000       0.00540000
H       -0.69960000       1.84900000      -0.86690000
H       -0.68160000       1.83860000       0.90730000
H        0.50160000      -0.37540000      -0.88870000
H        0.51950000      -0.38570000       0.87870000
