17
Properties=species:S:1:pos:R:3 gdb_15064=T pbc="F F F"
O        0.02830000       1.39210000       0.13630000
C       -0.04840000      -0.01350000       0.14910000
C       -1.49260000      -0.53910000      -0.05220000
C       -2.00490000      -0.03540000      -1.33300000
N       -2.35560000       0.38490000      -2.35160000
C       -1.56740000      -2.05590000       0.02160000
C       -1.67370000      -2.72780000       1.36810000
C       -2.84730000      -2.74110000       0.42160000
H       -0.19680000       1.69800000      -0.75000000
H        0.60850000      -0.47220000      -0.60520000
H        0.29540000      -0.33870000       1.13480000
H       -2.11380000      -0.10350000       0.74040000
H       -0.96450000      -2.56100000      -0.72750000
H       -1.12140000      -3.64710000       1.52540000
H       -1.74100000      -2.09560000       2.24770000
H       -3.70140000      -2.11790000       0.66410000
H       -3.10330000      -3.66980000      -0.07490000
