19
Properties=species:S:1:pos:R:3 gdb_115812=T pbc="F F F"
C        0.05940000       1.32580000      -0.20240000
O        0.03480000      -0.08490000      -0.06750000
C       -1.23970000      -0.61330000       0.07900000
O       -1.97420000      -0.43430000      -1.13930000
C       -2.86060000      -1.52790000      -1.32620000
C       -2.22480000      -2.70680000      -0.59990000
O       -3.06000000      -3.72990000      -0.16070000
C       -0.76470000      -2.94390000      -0.86730000
C       -1.20130000      -2.10470000       0.31830000
H        1.10970000       1.62470000      -0.22040000
H       -0.42790000       1.64980000      -1.12890000
H       -0.43730000       1.81610000       0.64870000
H       -1.76900000      -0.08950000       0.89750000
H       -3.84960000      -1.33690000      -0.88160000
H       -2.98620000      -1.67400000      -2.40550000
H       -3.16170000      -4.36260000      -0.87960000
H       -0.38750000      -3.93200000      -0.62860000
H       -0.28700000      -2.44620000      -1.70440000
H       -1.05580000      -2.47890000       1.32320000
