15
Properties=species:S:1:pos:R:3 gdb_54653=T pbc="F F F"
N       -0.06300000       1.29440000       0.00670000
C        0.02860000      -0.05150000       0.00170000
O        1.05880000      -0.70320000      -0.00820000
C       -1.30730000      -0.73970000       0.01060000
N       -2.44830000      -0.15810000       0.02090000
C       -3.44040000      -1.24330000       0.02600000
C       -2.64930000      -2.55510000       0.01630000
N       -3.13870000      -3.72480000       0.01690000
N       -1.32310000      -2.11750000       0.00730000
H        0.77500000       1.85030000       0.00080000
H       -0.97390000       1.72550000       0.01450000
H       -4.08190000      -1.17480000       0.91110000
H       -4.09580000      -1.17030000      -0.84840000
H       -2.41330000      -4.44330000       0.00940000
H       -0.48300000      -2.67340000      -0.00120000
