18
Properties=species:S:1:pos:R:3 gdb_9903=T pbc="F F F"
C        0.33620000       1.37520000       0.32120000
C       -0.31010000       0.10460000      -0.26040000
C        0.42960000      -0.46170000      -1.38320000
C        1.05270000      -0.92600000      -2.30560000
C        1.78500000      -1.43660000      -3.43630000
O        1.27870000      -1.07870000      -4.69860000
C        3.29070000      -1.62110000      -3.32240000
C        2.37810000      -2.82040000      -3.39630000
H        1.34760000       1.16680000       0.68070000
H        0.40400000       2.15920000      -0.43800000
H       -0.25590000       1.75650000       1.15860000
H       -0.40430000      -0.65300000       0.52850000
H       -1.33570000       0.32820000      -0.58150000
H        1.27750000      -0.11590000      -4.74480000
H        3.86180000      -1.37310000      -4.20990000
H        3.76560000      -1.38460000      -2.37750000
H        2.22100000      -3.41310000      -2.50360000
H        2.34150000      -3.36660000      -4.33170000
