14
Properties=species:S:1:pos:R:3 gdb_12947=T pbc="F F F"
C       -0.00460000       1.54420000       0.02700000
C        0.08970000       0.03630000       0.08360000
C        1.33650000      -0.75270000      -0.15850000
O        2.48020000      -0.02230000       0.36950000
C        1.99180000      -0.14430000       1.66930000
O        2.55040000       0.11980000       2.68240000
C        0.69230000      -0.78140000       1.22540000
O       -0.07890000      -1.66910000       1.92420000
H        0.94030000       2.01190000       0.31190000
H       -0.24740000       1.87020000      -0.98940000
H       -0.78920000       1.90930000       0.69630000
H       -0.79140000      -0.49490000      -0.27750000
H        1.53770000      -1.51860000      -0.89370000
H        0.49520000      -2.32670000       2.33480000
