21
Properties=species:S:1:pos:R:3 gdb_122078=T pbc="F F F"
C       -0.70210000       1.26880000       0.09850000
C        0.25260000       0.08230000      -0.05210000
C        0.58900000      -0.57790000       1.28490000
N        1.53430000      -1.67680000       1.09020000
C        1.90670000      -2.38480000       2.30820000
C        0.85180000      -3.41030000       2.80140000
O        0.56590000      -4.36650000       1.80090000
C        3.17190000      -3.11270000       2.08560000
N        4.12090000      -3.75090000       1.91800000
H       -0.26700000       2.05140000       0.72990000
H       -0.93050000       1.71610000      -0.87310000
H       -1.65020000       0.96370000       0.55480000
H       -0.19570000      -0.66790000      -0.71740000
H        1.18660000       0.39940000      -0.52880000
H        1.06410000       0.15820000       1.94730000
H       -0.34940000      -0.88630000       1.78110000
H        1.15190000      -2.35800000       0.43940000
H        2.08140000      -1.64700000       3.10150000
H        1.18830000      -3.87590000       3.73860000
H       -0.08470000      -2.88210000       3.00130000
H        1.33750000      -4.93760000       1.70480000
