19
Properties=species:S:1:pos:R:3 gdb_88762=T pbc="F F F"
C       -0.12960000       1.49950000      -0.08870000
C       -0.05280000       0.00560000       0.09590000
O        1.23450000      -0.61580000       0.00700000
C        0.53780000      -0.68140000       1.25850000
C        1.18680000       0.03760000       2.40820000
O        0.25210000       0.37260000       3.47800000
C        1.12690000      -0.22280000       4.44350000
C        1.24590000      -1.69260000       4.21320000
C        2.07960000      -0.72950000       3.38720000
H        0.65940000       2.02230000       0.45460000
H       -0.03340000       1.75080000      -1.15010000
H       -1.09820000       1.87280000       0.25970000
H       -0.83210000      -0.54940000      -0.43100000
H        0.14990000      -1.67130000       1.50200000
H        1.68470000       0.94560000       2.05260000
H        1.27200000       0.29460000       5.38420000
H        1.81760000      -2.23930000       4.95680000
H        0.41040000      -2.23850000       3.78490000
H        3.15970000      -0.75770000       3.35950000
