17
Properties=species:S:1:pos:R:3 gdb_53734=T pbc="F F F"
C        0.74170000       0.25990000       0.88240000
C       -0.27080000       0.44750000      -0.22830000
O       -0.13490000       1.25700000      -1.12080000
C       -1.43670000      -0.41520000      -0.15990000
C       -2.40180000      -1.13890000      -0.09730000
C       -3.58450000      -1.96380000      -0.05930000
C       -4.84630000      -1.34390000      -0.62210000
C       -3.41120000      -3.43460000      -0.04130000
O       -3.75610000      -2.73560000       1.14630000
H        1.57320000       0.95130000       0.73850000
H        0.26960000       0.43570000       1.85500000
H        1.10740000      -0.77250000       0.88780000
H       -4.70430000      -1.07240000      -1.67200000
H       -5.67570000      -2.05060000      -0.54230000
H       -5.10470000      -0.43730000      -0.06780000
H       -4.19690000      -4.05190000      -0.47550000
H       -2.40920000      -3.85840000      -0.06600000
