21
Properties=species:S:1:pos:R:3 gdb_88023=T pbc="F F F"
C       -0.07360000       1.51370000      -0.04190000
C        0.04460000       0.00740000       0.01670000
C        1.38330000      -0.66830000      -0.19260000
C        0.73570000      -0.68130000       1.15970000
C        1.18750000      -0.04180000       2.47890000
C        0.27970000      -1.05350000       3.23270000
C        0.17800000      -1.90980000       1.92460000
C       -1.10750000      -2.45600000       1.54300000
C       -2.18060000      -2.88980000       1.21340000
H        0.81930000       2.00040000       0.36390000
H       -0.19340000       1.85670000      -1.07540000
H       -0.93750000       1.87210000       0.52950000
H       -0.81430000      -0.53030000      -0.37840000
H        1.41480000      -1.59650000      -0.75520000
H        2.25520000      -0.03390000      -0.32860000
H        2.25170000      -0.19900000       2.68260000
H        0.96130000       1.01760000       2.62210000
H        0.69810000      -1.55640000       4.10640000
H       -0.68830000      -0.62370000       3.49670000
H        0.92760000      -2.71030000       1.94210000
H       -3.12640000      -3.28180000       0.93240000
