16
Properties=species:S:1:pos:R:3 gdb_18150=T pbc="F F F"
C       -0.08940000       1.52540000      -0.19320000
C        0.02570000       0.03200000       0.01830000
C        1.28890000      -0.74530000      -0.15350000
O        2.43600000       0.00600000       0.27250000
C        1.97060000      -0.03150000       1.63200000
C        1.95780000       1.27020000       2.39510000
O        2.32450000       2.33850000       1.98370000
C        0.64070000      -0.68020000       1.21850000
H        0.86760000       2.02210000      -0.02900000
H       -0.40760000       1.73200000      -1.22050000
H       -0.83030000       1.96780000       0.48090000
H       -0.83350000      -0.54170000      -0.32830000
H        1.46290000      -1.56570000      -0.84010000
H        2.57350000      -0.74230000       2.22150000
H        1.57200000       1.14190000       3.43550000
H        0.12270000      -1.44090000       1.78620000
