16
Properties=species:S:1:pos:R:3 gdb_549=T pbc="F F F"
C        0.50910000       1.56210000      -0.09230000
O        0.53900000       0.17230000       0.12300000
C       -0.05760000      -0.55710000      -0.92420000
C        0.03990000      -2.03360000      -0.57290000
O       -0.55780000      -2.76290000      -1.61950000
C       -0.52640000      -4.15280000      -1.40500000
H        1.05130000       1.84580000      -1.00840000
H       -0.52210000       1.94110000      -0.17510000
H        0.99190000       2.03740000       0.76510000
H       -1.11550000      -0.27620000      -1.05440000
H        0.45260000      -0.36920000      -1.88300000
H        1.09770000      -2.31520000      -0.44330000
H       -0.46980000      -2.22080000       0.38630000
H       -1.06950000      -4.43780000      -0.48990000
H       -1.00730000      -4.62820000      -2.26340000
H        0.50520000      -4.53040000      -1.32100000
