20
Properties=species:S:1:pos:R:3 gdb_113174=T pbc="F F F"
C        0.01770000       1.43970000      -0.29540000
N       -0.06850000       0.05580000       0.26470000
H        0.56770000      -0.57080000      -0.23700000
H        0.25260000       0.05650000       1.23590000
C       -1.43530000      -0.55360000       0.22190000
C       -1.87920000      -1.15680000      -1.07390000
C       -1.55180000      -2.04360000       0.11240000
C       -0.33380000      -2.93680000       0.07730000
C       -2.81150000      -2.58740000       0.91150000
O       -2.73640000      -3.78200000       1.21840000
O       -3.68130000      -1.71210000       1.09710000
H        1.04370000       1.80510000      -0.22270000
H       -0.30770000       1.40020000      -1.33400000
H       -0.65610000       2.07800000       0.27580000
H       -2.14780000      -0.04590000       0.86360000
H       -2.92500000      -1.01920000      -1.32230000
H       -1.18550000      -1.13930000      -1.91380000
H        0.43090000      -2.63920000      -0.66070000
H        0.13780000      -3.01250000       1.06380000
H       -0.67200000      -3.94420000      -0.17380000
