19
Properties=species:S:1:pos:R:3 gdb_48209=T pbc="F F F"
O       -0.20030000       0.02070000      -0.58760000
C       -0.08030000       1.05290000       0.02230000
C        1.21270000       1.85920000       0.09970000
C        1.45470000       2.66350000      -1.18070000
C        1.23770000       2.08730000      -2.52730000
N        0.35720000       3.16190000      -2.03000000
C        1.19240000       2.75850000       1.32280000
C        1.55050000       2.21820000       2.65900000
N        2.44330000       3.16880000       1.97250000
H       -0.94130000       1.48750000       0.57950000
H        2.03030000       1.13110000       0.19990000
H        2.25350000       3.39350000      -1.06170000
H        1.89000000       2.37510000      -3.34670000
H        0.84110000       1.07780000      -2.58320000
H       -0.53520000       2.76470000      -1.74460000
H        0.45570000       3.55950000       1.27540000
H        1.07030000       2.60420000       3.55320000
H        1.84970000       1.17440000       2.72070000
H        3.23020000       2.66920000       1.56320000
