12
Properties=species:S:1:pos:R:3 gdb_27514=T pbc="F F F"
O        0.05160000       1.31780000       0.11540000
C       -0.08920000       0.00370000      -0.02290000
C       -1.23340000      -0.66830000       0.15120000
C       -1.23740000      -2.09330000      -0.03280000
N       -2.23190000      -2.85650000       0.09530000
O        0.02080000      -2.65250000      -0.39260000
C        1.15520000      -1.96290000      -0.56220000
O        2.18930000      -2.45930000      -0.86270000
O        1.08360000      -0.59530000      -0.36850000
H        0.97180000       1.55310000      -0.06420000
H       -2.14700000      -0.16550000       0.42500000
H       -1.98240000      -3.82780000      -0.08760000
