15
Properties=species:S:1:pos:R:3 gdb_11806=T pbc="F F F"
N        0.26910000       1.35280000      -0.22520000
C        0.07850000      -0.05500000      -0.01520000
C        0.05130000      -0.55130000       1.44870000
O        0.71090000      -0.46190000       2.43050000
O       -1.13870000      -1.23050000       1.29250000
C       -1.29610000      -0.74810000      -0.06310000
C       -2.60380000      -0.25030000      -0.56320000
C       -1.99620000      -1.54530000      -1.09970000
H        0.30340000       1.58040000      -1.21230000
H       -0.47320000       1.89920000       0.19840000
H        0.83340000      -0.60840000      -0.58320000
H       -3.46150000      -0.33710000       0.09440000
H       -2.60350000       0.62810000      -1.20180000
H       -1.59200000      -1.55460000      -2.10700000
H       -2.45880000      -2.47540000      -0.78820000
