20
Properties=species:S:1:pos:R:3 gdb_109748=T pbc="F F F"
C       -0.10270000       1.55520000      -0.23570000
N        0.14150000       0.12510000      -0.02020000
H        0.69080000      -0.01300000       0.82170000
H       -1.40250000      -0.66220000      -0.23750000
C        0.78140000      -0.52290000      -1.14380000
C        0.88850000      -2.01960000      -1.16340000
C        0.45420000      -2.90870000      -0.01640000
C       -0.09400000      -1.32270000      -2.10580000
C       -1.58600000      -1.47150000      -1.95240000
O       -2.26780000      -1.90380000      -2.84600000
O       -2.11350000      -1.10660000      -0.77160000
H        0.81000000       2.11070000      -0.49800000
H       -0.82340000       1.67720000      -1.04920000
H       -0.53200000       1.99110000       0.66970000
H        1.59630000       0.03880000      -1.60420000
H        1.77520000      -2.38550000      -1.67420000
H       -0.48160000      -2.58360000       0.43960000
H        0.30540000      -3.93250000      -0.37340000
H        1.22520000      -2.94000000       0.76200000
H        0.18710000      -1.30960000      -3.15170000
