15
Properties=species:S:1:pos:R:3 gdb_132746=T pbc="F F F"
C       -0.02320000       1.52580000      -0.00880000
C       -0.00530000       0.02020000       0.01990000
C        0.02360000      -0.69090000      -1.17630000
F        0.03530000      -0.02930000      -2.33850000
C        0.04090000      -2.08180000      -1.19530000
F        0.06850000      -2.70840000      -2.37280000
C        0.02950000      -2.80170000      -0.01120000
C        0.00060000      -2.10800000       1.19590000
C       -0.01650000      -0.71620000       1.20790000
H        0.85950000       1.92500000      -0.51950000
H       -0.89720000       1.90360000      -0.54970000
H       -0.04550000       1.93230000       1.00460000
H        0.04350000      -3.88410000      -0.05520000
H       -0.00860000      -2.65860000       2.12970000
H       -0.03910000      -0.18310000       2.15260000
