13
Properties=species:S:1:pos:R:3 gdb_24923=T pbc="F F F"
N       -0.10670000       1.26910000       0.03340000
C       -0.02320000       0.01130000       0.04400000
N       -1.12170000      -0.86890000       0.10430000
C       -0.59230000      -2.13260000      -0.09220000
C        0.75040000      -2.06660000      -0.10370000
O        1.15050000      -0.74660000      -0.01100000
C        1.23700000      -3.40090000      -0.02810000
C        0.10170000      -4.16630000       0.00930000
O       -1.04950000      -3.38660000      -0.00410000
H        0.81360000       1.69670000      -0.02560000
H       -2.01920000      -0.53640000      -0.20980000
H        2.25050000      -3.76660000      -0.02450000
H       -0.07180000      -5.22750000      -0.01870000
