18
Properties=species:S:1:pos:R:3 gdb_20291=T pbc="F F F"
C        0.34850000       1.56520000       0.28310000
C        1.15240000       0.50650000      -0.42430000
C       -0.26980000       0.21680000      -0.00170000
C       -0.63190000      -0.70120000       1.14090000
C       -0.97270000      -2.20880000       0.94730000
C        0.51540000      -2.54000000       0.69670000
C        0.39580000      -1.58580000       1.91130000
O       -0.73940000      -2.40320000       2.39800000
H        0.61000000       1.78810000       1.31280000
H        0.00270000       2.42310000      -0.28260000
H        1.35830000       0.63120000      -1.48190000
H        1.95920000       0.03630000       0.12750000
H       -1.00050000       0.21230000      -0.80760000
H       -1.34330000      -0.23430000       1.82870000
H       -1.86760000      -2.66240000       0.51870000
H        0.80430000      -3.56110000       0.94830000
H        0.98380000      -2.17170000      -0.21630000
H        1.15030000      -1.29650000       2.64440000
