21
Properties=species:S:1:pos:R:3 gdb_76741=T pbc="F F F"
C       -0.18360000       1.54850000       0.02810000
C       -0.05550000       0.03440000      -0.04650000
C        1.04110000      -0.58150000      -1.01400000
O        1.90700000       0.29470000      -1.68380000
C        1.63820000      -1.31570000       0.20160000
C        2.42540000      -2.58390000       0.24550000
O        2.02510000      -0.23910000       1.08900000
C        0.64970000      -0.69640000       1.10960000
C        0.08380000      -1.13460000       2.42130000
H        0.75570000       2.00540000       0.35140000
H       -0.44240000       1.96560000      -0.94970000
H       -0.96270000       1.84420000       0.73880000
H       -1.02690000      -0.42810000      -0.25540000
H        0.60900000      -1.24490000      -1.76770000
H        2.40570000       0.74840000      -0.99180000
H        3.39620000      -2.45060000      -0.24460000
H        2.60520000      -2.89650000       1.27780000
H        1.89370000      -3.38570000      -0.27730000
H       -0.14040000      -0.27050000       3.05670000
H       -0.84760000      -1.69040000       2.27130000
H        0.79140000      -1.77260000       2.95770000
