21
Properties=species:S:1:pos:R:3 gdb_40883=T pbc="F F F"
C       -0.05790000       1.55670000      -0.13520000
C        1.48930000       1.53730000       0.01890000
C        1.37190000       0.09870000       0.58090000
C       -0.07520000       0.01380000       0.05460000
C        2.49080000      -0.97490000       0.41050000
C        3.18060000      -0.30650000       1.64130000
C        1.70290000      -0.16120000       2.07440000
O        1.27250000      -1.51790000       2.27230000
C        1.81320000      -2.16790000       1.09520000
H       -0.54740000       2.07970000       0.69050000
H       -0.45560000       1.94780000      -1.07400000
H        2.00250000       1.56190000      -0.94800000
H        1.93720000       2.29940000       0.66280000
H       -0.81550000      -0.40780000       0.73860000
H       -0.13880000      -0.52160000      -0.89890000
H        2.99840000      -1.15010000      -0.53830000
H        3.82390000      -0.92370000       2.27330000
H        3.66320000       0.64000000       1.39710000
H        1.35470000       0.45980000       2.89950000
H        1.00120000      -2.60790000       0.50450000
H        2.51050000      -2.96070000       1.39080000
