19
Properties=species:S:1:pos:R:3 gdb_108852=T pbc="F F F"
C       -0.00790000       1.43060000       0.10770000
N       -0.04190000      -0.00140000      -0.09200000
C        0.60570000      -0.61570000      -1.10350000
N        1.23690000      -0.05640000      -2.07460000
C        1.75650000      -1.09190000      -2.99010000
C        3.25290000      -0.88170000      -3.22550000
C        1.40510000      -2.47310000      -2.38300000
C        0.60270000      -2.12080000      -1.14340000
O        0.07460000      -2.84030000      -0.33030000
H        0.97600000       1.78070000       0.44780000
H       -0.23330000       1.93870000      -0.83420000
H       -0.75800000       1.70930000       0.85070000
H       -0.38400000      -0.61100000       0.63400000
H        1.24110000      -0.96630000      -3.95170000
H        3.81160000      -1.01210000      -2.29210000
H        3.63790000      -1.59580000      -3.96100000
H        3.43850000       0.13160000      -3.59110000
H        0.81880000      -3.11660000      -3.04530000
H        2.29340000      -3.04220000      -2.08810000
