16
Properties=species:S:1:pos:R:3 gdb_44137=T pbc="F F F"
N       -0.32800000       1.25970000       0.05630000
C       -0.17110000       0.01840000       0.02700000
O        0.99630000      -0.74300000      -0.10850000
C        0.19470000      -1.94790000      -0.21850000
C       -0.54320000      -2.19780000       1.05000000
C       -0.02050000      -1.84740000       2.40350000
C       -0.74010000      -2.24000000       3.62070000
O        0.42100000      -2.95560000       3.19490000
C       -1.07770000      -1.16910000       0.03600000
H        0.56520000       1.74940000      -0.01960000
H        0.47310000      -2.66010000      -0.98280000
H       -1.12680000      -3.11590000       1.03320000
H        0.63160000      -0.97760000       2.44580000
H       -0.62390000      -1.65140000       4.52930000
H       -1.68100000      -2.78300000       3.53750000
H       -2.06520000      -1.22780000      -0.39670000
