17
Properties=species:S:1:pos:R:3 gdb_132729=T pbc="F F F"
C        0.07470000       1.51260000       0.03390000
C        0.01850000       0.00800000       0.00590000
C       -0.02070000      -0.68440000      -1.21270000
C       -0.00960000       0.01440000      -2.54660000
C       -0.07140000      -2.07860000      -1.12120000
F       -0.11010000      -2.77940000      -2.25980000
N       -0.08580000      -2.79490000      -0.02200000
C       -0.04790000      -2.11680000       1.13020000
C        0.00420000      -0.73290000       1.19160000
H        0.96220000       1.88810000      -0.48840000
H       -0.79430000       1.95330000      -0.46800000
H        0.10050000       1.88830000       1.05900000
H        0.89290000       0.62420000      -2.67000000
H       -0.04610000      -0.70650000      -3.36280000
H       -0.86600000       0.69070000      -2.65000000
H       -0.06000000      -2.71450000       2.03760000
H        0.03350000      -0.23060000       2.15230000
