21
Properties=species:S:1:pos:R:3 gdb_70294=T pbc="F F F"
C        0.00580000       1.51780000      -0.00180000
C        0.03280000       0.00870000       0.00080000
C       -0.81930000      -0.76080000       0.98430000
C        0.68710000      -0.79890000       1.11140000
C        1.39760000      -1.99600000       0.49820000
C        0.78380000      -2.10570000      -0.89590000
C        1.07040000      -3.19100000      -1.83470000
O       -0.15580000      -3.17610000      -1.09860000
C        0.32610000      -0.71180000      -1.31330000
H        0.93630000       1.93300000      -0.40790000
H       -0.82060000       1.90200000      -0.61180000
H       -0.12220000       1.91340000       1.01090000
H       -1.36100000      -0.17830000       1.72240000
H       -1.33870000      -1.65470000       0.65350000
H        1.14600000      -0.29830000       1.95740000
H        2.47460000      -1.79850000       0.42540000
H        1.26280000      -2.93110000       1.05050000
H        0.97520000      -3.02000000      -2.90700000
H        1.77370000      -3.97610000      -1.55690000
H       -0.53250000      -0.77350000      -1.98960000
H        1.13430000      -0.19000000      -1.84350000
