19
Properties=species:S:1:pos:R:3 gdb_47562=T pbc="F F F"
O        0.02550000      -0.15130000       0.00670000
C       -0.02840000       1.06510000      -0.03730000
C       -1.37870000       1.78270000       0.04910000
N       -1.61250000       2.74700000      -1.02370000
C       -2.29000000       3.99000000      -0.64760000
C       -0.84070000       3.99000000      -0.97900000
C        0.23710000       4.16170000       0.06780000
C        1.41900000       3.22930000      -0.20660000
N        1.12660000       1.80320000      -0.08980000
H       -2.13120000       0.99560000      -0.02330000
H       -1.46370000       2.22190000       1.05730000
H       -3.02170000       4.36560000      -1.35740000
H       -2.56410000       4.11880000       0.39890000
H       -0.54450000       4.33630000      -1.96950000
H        0.61100000       5.19140000       0.04110000
H       -0.14910000       3.99840000       1.07780000
H        1.80470000       3.44520000      -1.21470000
H        2.22900000       3.46260000       0.49550000
H        1.93230000       1.19470000      -0.14170000
