18
Properties=species:S:1:pos:R:3 gdb_81976=T pbc="F F F"
C       -0.15870000       1.61610000       0.04860000
C       -0.00710000       0.09660000       0.01380000
C       -1.30000000      -0.54780000      -0.16620000
C       -2.36250000      -1.07610000      -0.35930000
C        1.08820000      -0.51600000      -0.96100000
O        1.90620000       0.36210000      -1.69370000
C        1.75670000      -1.08290000       0.27480000
C        2.07200000      -0.01850000       1.24300000
N        0.69130000      -0.53730000       1.21570000
H        0.80560000       2.12180000      -0.01620000
H       -0.76990000       1.94980000      -0.79490000
H       -0.66300000       1.91550000       0.97190000
H       -3.30430000      -1.54310000      -0.50990000
H        0.64830000      -1.28960000      -1.59800000
H        1.44960000       0.59640000      -2.50830000
H        2.13300000      -2.09540000       0.36750000
H        2.59570000      -0.31500000       2.14640000
H        2.29880000       0.98370000       0.89780000
