19
Properties=species:S:1:pos:R:3 gdb_133761=T pbc="F F F"
C       -0.08350000       1.56830000       0.06910000
C        0.08890000       0.04770000       0.01140000
C        0.78090000      -0.44080000      -1.27070000
N        2.19780000      -0.11260000      -1.27800000
C        2.77400000       0.19430000      -2.58240000
C        0.61140000      -1.95850000      -1.40110000
F       -0.68980000      -2.28100000      -1.53650000
F        1.24850000      -2.44170000      -2.48050000
F        1.07780000      -2.61360000      -0.33220000
H        0.87370000       2.09860000       0.01980000
H       -0.70220000       1.92770000      -0.75990000
H       -0.56970000       1.86500000       1.00280000
H        0.67110000      -0.30670000       0.86960000
H       -0.89180000      -0.43220000       0.07820000
H        0.25310000      -0.01520000      -2.14270000
H        2.37700000       0.64340000      -0.63140000
H        2.24590000       0.99870000      -3.12440000
H        3.81630000       0.49760000      -2.45030000
H        2.76320000      -0.69750000      -3.21290000
