19
Properties=species:S:1:pos:R:3 gdb_47535=T pbc="F F F"
N       -0.04280000       1.38250000      -0.23180000
C       -0.04230000       0.14220000       0.02420000
C       -1.34110000      -0.63460000       0.07750000
C       -1.65490000      -1.21360000       1.44620000
C       -2.14230000      -2.61480000       1.58850000
N       -0.79860000      -2.24860000       2.02640000
C        0.34150000      -2.68130000       1.22240000
C        1.37060000      -1.56060000       1.12110000
O        1.13220000      -0.55880000       0.12060000
H        0.91970000       1.72850000      -0.24970000
H       -2.13470000       0.05420000      -0.21780000
H       -1.29650000      -1.42970000      -0.67380000
H       -1.98440000      -0.47330000       2.17300000
H       -2.83910000      -2.88730000       2.37640000
H       -2.24110000      -3.19780000       0.67330000
H        0.80990000      -3.52880000       1.73770000
H        0.07540000      -3.03090000       0.21250000
H        1.46680000      -1.07820000       2.10230000
H        2.34280000      -1.97540000       0.84410000
