19
Properties=species:S:1:pos:R:3 gdb_120839=T pbc="F F F"
O        0.01250000       1.33970000       0.38200000
C       -0.08130000      -0.07510000       0.39130000
C       -1.30900000      -0.45730000      -0.43260000
C       -1.47790000      -1.95240000      -0.51770000
O       -1.92470000      -2.63970000       0.66160000
C       -2.76400000      -2.67120000      -0.49910000
C       -4.12490000      -2.01670000      -0.38260000
C       -5.04690000      -2.82750000       0.51120000
O       -6.15290000      -3.18720000       0.20210000
H        0.75250000       1.59650000       0.93960000
H        0.81880000      -0.54020000      -0.04340000
H       -0.19490000      -0.46880000       1.41240000
H       -2.18520000       0.01750000       0.01630000
H       -1.19710000      -0.04820000      -1.44420000
H       -0.65580000      -2.46670000      -1.02190000
H       -2.78480000      -3.64500000      -0.99310000
H       -4.02350000      -1.02300000       0.06850000
H       -4.59400000      -1.91020000      -1.36540000
H       -4.61440000      -3.07120000       1.50660000
