22
Properties=species:S:1:pos:R:3 gdb_88164=T pbc="F F F"
C        0.02870000       1.59820000      -0.08770000
C       -0.01520000       0.09800000       0.07760000
N        1.25860000      -0.63380000      -0.09310000
C        0.60460000      -0.61180000       1.22570000
C        1.32350000       0.09240000       2.37620000
C        1.42220000      -1.02570000       3.42050000
O        0.24510000      -1.80080000       3.23260000
C        0.03150000      -1.91410000       1.83040000
C       -1.44220000      -2.20070000       1.59230000
H        0.94880000       2.01210000       0.33160000
H       -0.00920000       1.87060000      -1.14780000
H       -0.82420000       2.07120000       0.41180000
H       -0.90210000      -0.36950000      -0.34720000
H        1.08920000      -1.52910000      -0.54910000
H        2.29330000       0.48560000       2.06620000
H        0.71760000       0.91810000       2.76370000
H        2.32220000      -1.63950000       3.25140000
H        1.43160000      -0.67670000       4.45580000
H        0.63350000      -2.75730000       1.44140000
H       -2.05810000      -1.36010000       1.92400000
H       -1.64130000      -2.38700000       0.53230000
H       -1.74010000      -3.09170000       2.15210000
