20
Properties=species:S:1:pos:R:3 gdb_120679=T pbc="F F F"
C        0.10480000       1.53050000       0.16280000
C        0.03990000       0.07730000       0.11500000
C       -0.01480000      -1.12590000       0.08690000
C       -0.05100000      -2.56110000       0.01750000
N       -0.72650000      -3.29620000       1.11800000
C       -1.31040000      -3.33630000      -0.22910000
C       -2.65640000      -2.67590000      -0.40100000
C       -3.79610000      -3.54530000       0.13800000
O       -5.07260000      -2.95420000      -0.04870000
H        1.14220000       1.88230000       0.14220000
H       -0.41600000       1.98350000      -0.68820000
H       -0.35680000       1.91660000       1.07840000
H        0.85620000      -3.01220000      -0.38080000
H       -0.21270000      -4.15140000       1.31430000
H       -1.17570000      -4.25660000      -0.79820000
H       -2.64720000      -1.71490000       0.12580000
H       -2.83550000      -2.46420000      -1.46190000
H       -3.83300000      -4.49850000      -0.40230000
H       -3.60680000      -3.77700000       1.19680000
H       -5.09590000      -2.14390000       0.47030000
