16
Properties=species:S:1:pos:R:3 gdb_49676=T pbc="F F F"
O       -0.39340000       0.48420000       0.55710000
C        0.10860000       1.21620000      -0.26330000
C        1.33570000       2.02490000      -0.04300000
C        1.48140000       2.82350000       1.23900000
C        0.57670000       2.56830000       2.45110000
C        1.12990000       1.26020000       3.04950000
C        1.97430000       0.63500000       1.93650000
O        2.37160000      -0.48840000       1.85170000
N        2.33210000       1.67650000       0.98910000
H       -0.34950000       1.35680000      -1.26530000
H        1.77030000       2.43900000      -0.95020000
H        1.95250000       3.79790000       1.14120000
H        0.64920000       3.40910000       3.14370000
H       -0.47270000       2.46220000       2.16810000
H        1.78350000       1.45470000       3.90760000
H        0.36810000       0.54810000       3.36490000
