21
Properties=species:S:1:pos:R:3 gdb_120833=T pbc="F F F"
O        0.01450000       1.40170000       0.28020000
C        0.00870000      -0.01730000       0.28920000
C       -1.33350000      -0.47920000      -0.27040000
C       -1.44740000      -1.98780000      -0.31050000
C       -1.89900000      -2.77450000       0.89780000
C       -2.77160000      -2.72030000      -0.33760000
C       -4.11380000      -2.01010000      -0.32620000
C       -5.19700000      -2.89560000       0.25570000
O       -6.24290000      -3.15140000      -0.28270000
H        0.85640000       1.70270000       0.63370000
H        0.82760000      -0.42490000      -0.32620000
H        0.13960000      -0.41450000       1.30850000
H       -2.12360000      -0.03870000       0.34710000
H       -1.45170000      -0.05850000      -1.27660000
H       -0.67120000      -2.46360000      -0.90620000
H       -1.39820000      -3.70360000       1.14640000
H       -2.22580000      -2.20450000       1.76300000
H       -2.77450000      -3.62280000      -0.94370000
H       -4.05970000      -1.11150000       0.30250000
H       -4.42300000      -1.69950000      -1.32910000
H       -4.94700000      -3.31950000       1.25610000
