20
Properties=species:S:1:pos:R:3 gdb_111769=T pbc="F F F"
C        0.17850000       0.94970000      -0.46800000
O       -0.09970000       0.03050000       0.57450000
C       -1.31360000      -0.62180000       0.41620000
C       -1.58240000      -1.63350000      -0.67720000
N       -0.31290000      -2.29960000      -1.03530000
C       -0.21040000      -2.84640000       0.36550000
C       -1.46690000      -2.06420000       0.78560000
O       -2.42090000      -2.52940000       1.66170000
C       -2.13820000      -2.22400000       3.02110000
H        1.14760000       1.40140000      -0.24330000
H        0.23080000       0.43920000      -1.43710000
H       -0.57970000       1.74580000      -0.51870000
H       -2.19910000      -0.02590000       0.65440000
H       -2.42130000      -1.56560000      -1.36020000
H       -0.49780000      -3.06210000      -1.67950000
H       -0.38820000      -3.92440000       0.41200000
H        0.72950000      -2.59530000       0.86380000
H       -1.21900000      -2.71790000       3.36510000
H       -2.03150000      -1.14190000       3.17340000
H       -2.98060000      -2.59180000       3.61080000
