23
Properties=species:S:1:pos:R:3 gdb_114522=T pbc="F F F"
C        0.26440000       1.75020000      -0.48730000
O       -0.33550000       0.49750000      -0.72570000
C        0.57180000      -0.47000000      -1.18510000
C        1.58820000      -1.11340000      -0.19070000
C        1.17060000      -2.51820000      -0.71310000
C        0.14720000      -3.24450000       0.19070000
C       -1.02880000      -2.56020000      -0.58070000
C       -2.04730000      -1.76070000       0.22380000
C       -0.00370000      -1.85670000      -1.53320000
H        1.03460000       1.69730000       0.29700000
H        0.73140000       2.15530000      -1.39940000
H       -0.52290000       2.43360000      -0.16010000
H        1.11320000      -0.07600000      -2.06160000
H        2.63320000      -0.83340000      -0.34310000
H        1.33250000      -0.95130000       0.86090000
H        1.95470000      -3.11320000      -1.18140000
H        0.15530000      -4.33390000       0.09720000
H        0.22120000      -2.99470000       1.25460000
H       -1.56840000      -3.31020000      -1.16850000
H       -1.56870000      -1.01430000       0.86060000
H       -2.74300000      -1.22790000      -0.43220000
H       -2.63160000      -2.43570000       0.86050000
H       -0.17630000      -2.03510000      -2.59600000
