21
Properties=species:S:1:pos:R:3 gdb_87958=T pbc="F F F"
C       -0.06790000       1.55500000      -0.02870000
C       -0.06800000       0.05320000       0.10310000
O        1.15670000      -0.62860000      -0.18720000
C        0.65180000      -0.67270000       1.16620000
C        1.48220000      -0.01170000       2.27560000
C        1.46120000      -1.01850000       3.45520000
C        0.65570000      -2.19650000       2.94530000
C        0.42070000      -3.40030000       3.80020000
C        0.22160000      -1.98810000       1.69950000
H        0.82830000       1.99300000       0.41690000
H       -0.09840000       1.84460000      -1.08450000
H       -0.94920000       1.98390000       0.46120000
H       -0.94950000      -0.43650000      -0.32000000
H        2.49560000       0.16580000       1.90710000
H        1.06980000       0.95790000       2.56750000
H        2.46830000      -1.33130000       3.75990000
H        0.99820000      -0.58800000       4.35260000
H       -0.10680000      -3.13250000       4.72480000
H       -0.16840000      -4.16010000       3.28000000
H        1.37130000      -3.85480000       4.10750000
H       -0.36960000      -2.68040000       1.11040000
