21
Properties=species:S:1:pos:R:3 gdb_104003=T pbc="F F F"
C       -0.00940000       1.35260000       0.13230000
O       -0.11370000      -0.03620000      -0.09070000
C        0.62700000      -0.54650000      -1.18800000
C        0.17060000       0.02950000      -2.52500000
C        2.19700000      -0.58070000      -1.02740000
C        2.14400000      -2.11000000      -1.09930000
C        1.29510000      -2.62800000       0.04130000
C        0.62660000      -2.08120000      -1.18580000
O       -0.19020000      -2.84830000      -1.99920000
H        1.03780000       1.68230000       0.20310000
H       -0.50460000       1.94590000      -0.64930000
H       -0.50310000       1.55880000       1.08570000
H        0.40880000       1.09440000      -2.60420000
H        0.66470000      -0.49060000      -3.34960000
H       -0.90890000      -0.10000000      -2.64390000
H        2.71840000      -0.10720000      -1.86250000
H        2.57890000      -0.17280000      -0.08640000
H        2.84140000      -2.74660000      -1.62840000
H        1.24760000      -3.70990000       0.11400000
H        1.25180000      -2.09520000       0.98700000
H       -0.98810000      -3.06320000      -1.50360000
