17
Properties=species:S:1:pos:R:3 gdb_3197=T pbc="F F F"
C       -0.02200000       1.56890000       0.00250000
C        1.49060000       1.96890000      -0.02400000
C        2.18100000       0.59110000      -0.03580000
C        1.24070000      -0.25500000      -0.90570000
C        0.03810000       0.02160000       0.02240000
C        0.65270000      -0.40350000       1.36630000
O        2.03150000       0.00370000       1.26690000
H       -0.54880000       1.96880000       0.87360000
H       -0.54600000       1.92540000      -0.88930000
H        1.74510000       2.55460000      -0.91300000
H        1.79550000       2.53960000       0.85580000
H        3.24290000       0.59520000      -0.28460000
H        1.10780000       0.13530000      -1.91840000
H        1.53640000      -1.30620000      -0.94900000
H       -0.90120000      -0.47970000      -0.21490000
H        0.18060000       0.09210000       2.22400000
H        0.60490000      -1.48930000       1.52590000
