17
Properties=species:S:1:pos:R:3 gdb_5829=T pbc="F F F"
C       -0.02730000       1.55600000       0.03210000
C        0.00190000       0.02270000       0.00290000
C        0.76790000      -0.53470000       1.22450000
C       -1.43270000      -0.55290000      -0.01970000
C        0.72070000      -0.43500000      -1.26260000
O        1.18970000       0.28600000      -2.10570000
C        0.83300000      -1.90780000      -1.43680000
N        0.92600000      -3.05140000      -1.58250000
H        0.98340000       1.97170000       0.03090000
H       -0.55150000       1.95890000      -0.83820000
H       -0.54150000       1.89790000       0.93510000
H        0.24870000      -0.24010000       2.14140000
H        0.82380000      -1.62690000       1.20570000
H        1.78690000      -0.13810000       1.26980000
H       -2.00190000      -0.16900000      -0.87180000
H       -1.43160000      -1.64560000      -0.07020000
H       -1.95410000      -0.25900000       0.89620000
