18
Properties=species:S:1:pos:R:3 gdb_14106=T pbc="F F F"
O       -0.17840000       1.37650000      -0.22100000
C       -0.10450000      -0.00860000      -0.04320000
C       -0.52080000      -0.63170000       1.26920000
C       -1.40330000      -0.74460000       0.05690000
C       -2.77310000      -0.11700000      -0.21950000
C       -2.95040000      -1.13830000      -1.38280000
C       -1.76920000      -1.96790000      -0.79950000
O       -0.80920000      -2.52480000      -1.66200000
H        0.52650000       1.78100000       0.29510000
H        0.70390000      -0.50120000      -0.58610000
H        0.01430000      -1.51200000       1.61310000
H       -0.84820000       0.04530000       2.05270000
H       -3.48480000      -0.27810000       0.59540000
H       -2.76810000       0.94170000      -0.48310000
H       -3.91490000      -1.64020000      -1.48480000
H       -2.67800000      -0.70130000      -2.34910000
H       -2.12410000      -2.79940000      -0.18170000
H       -0.50330000      -1.82380000      -2.24820000
