19
Properties=species:S:1:pos:R:3 gdb_115222=T pbc="F F F"
C       -0.03590000       1.41080000      -0.02750000
O        0.00680000      -0.00780000      -0.01890000
C        0.62230000      -0.56520000      -1.12270000
C        0.71940000      -2.07240000      -0.92510000
C        1.33640000      -2.73530000      -2.16760000
C        0.76390000      -2.20800000      -3.47710000
O        0.63180000      -2.88940000      -4.46470000
C        0.43240000      -0.71290000      -3.48070000
O       -0.16700000      -0.28150000      -2.27430000
H        0.97640000       1.83640000      -0.09730000
H       -0.63830000       1.78870000      -0.85960000
H       -0.48600000       1.71670000       0.91880000
H        1.62940000      -0.11990000      -1.27670000
H        1.31040000      -2.29300000      -0.03140000
H       -0.29690000      -2.44070000      -0.75260000
H        2.41350000      -2.51130000      -2.20260000
H        1.24150000      -3.82350000      -2.15420000
H        1.37130000      -0.16120000      -3.67780000
H       -0.26390000      -0.50030000      -4.29360000
