14
Properties=species:S:1:pos:R:3 gdb_130252=T pbc="F F F"
N        0.03520000       1.33750000      -0.00350000
C       -0.05430000      -0.01150000      -0.01770000
C       -1.17420000      -0.77700000      -0.07980000
C       -1.02490000      -2.20020000      -0.03200000
N       -2.16110000      -2.99260000      -0.14910000
N        0.10520000      -2.83990000       0.06950000
O        1.26490000      -2.03400000       0.06620000
C        1.26250000      -0.68820000       0.04490000
O        2.30700000      -0.07450000       0.05960000
H        0.96590000       1.71570000      -0.09890000
H       -0.75520000       1.91460000      -0.23040000
H       -2.16520000      -0.34600000      -0.17450000
H       -2.96410000      -2.65130000       0.36040000
H       -1.97210000      -3.96750000       0.04610000
