17
Properties=species:S:1:pos:R:3 gdb_109122=T pbc="F F F"
C       -0.02600000       1.37490000       0.03330000
O        0.02030000      -0.05730000      -0.02790000
C        0.63050000      -0.55550000      -1.09870000
N        1.16810000       0.09490000      -2.05780000
C        1.68940000      -0.92850000      -2.96510000
C        1.34670000      -2.28630000      -2.33930000
O        1.57260000      -3.40740000      -2.72530000
N        0.67920000      -1.94540000      -1.16550000
C        0.14620000      -2.89540000      -0.21260000
H        0.98540000       1.78830000       0.04660000
H       -0.56000000       1.77590000      -0.83160000
H       -0.55290000       1.61180000       0.95740000
H        1.24070000      -0.84960000      -3.96190000
H        2.77380000      -0.83720000      -3.09510000
H        0.37510000      -3.88970000      -0.60090000
H        0.60930000      -2.77050000       0.77040000
H       -0.93680000      -2.78380000      -0.10740000
