25
Properties=species:S:1:pos:R:3 gdb_59657=T pbc="F F F"
C       -0.24900000       1.43240000      -1.01440000
C       -0.04570000       0.06460000      -0.34630000
C        0.73750000       0.19650000       0.96760000
C       -1.39700000      -0.59640000      -0.10390000
O       -2.20140000      -0.70270000      -1.30320000
C       -2.64480000      -2.02050000      -0.93110000
C       -1.56400000      -2.12830000       0.17420000
C       -0.38820000      -3.00410000      -0.26130000
C       -2.05210000      -2.50520000       1.56920000
H        0.71420000       1.89900000      -1.24550000
H       -0.81730000       1.33020000      -1.94190000
H       -0.79970000       2.11260000      -0.35350000
H        0.52680000      -0.56610000      -1.03710000
H        0.19540000       0.82460000       1.68440000
H        0.91420000      -0.77370000       1.44270000
H        1.71230000       0.66240000       0.79190000
H       -1.94110000      -0.00750000       0.65560000
H       -3.67690000      -2.01170000      -0.55130000
H       -2.57690000      -2.72880000      -1.76540000
H       -0.06200000      -2.76560000      -1.27780000
H        0.47200000      -2.89430000       0.40710000
H       -0.68300000      -4.05970000      -0.24750000
H       -2.37160000      -3.55310000       1.60440000
H       -1.25790000      -2.37950000       2.31390000
H       -2.90060000      -1.88550000       1.87660000
