15
Properties=species:S:1:pos:R:3 gdb_27335=T pbc="F F F"
N        0.02490000       1.33280000       0.13570000
C       -0.03590000      -0.02730000       0.05330000
N       -1.15740000      -0.65860000       0.05030000
C       -1.14840000      -2.04820000       0.03020000
N       -2.19950000      -2.78090000      -0.01310000
C        0.16870000      -2.72220000       0.04100000
N        0.14730000      -4.10190000       0.10810000
C        1.26970000      -1.95320000       0.01640000
O        1.19450000      -0.56910000       0.01560000
H        0.87590000       1.77450000      -0.17140000
H       -0.83780000       1.81080000      -0.06550000
H       -3.02900000      -2.18640000      -0.02500000
H       -0.77010000      -4.45980000      -0.13170000
H        0.91510000      -4.59110000      -0.32560000
H        2.29580000      -2.29020000       0.00610000
