14
Properties=species:S:1:pos:R:3 gdb_260=T pbc="F F F"
C       -0.07430000       1.49050000       0.01100000
C        0.06480000      -0.02120000       0.00140000
O        1.14760000      -0.56390000      -0.01210000
C       -1.22940000      -0.81710000       0.00920000
C       -1.01280000      -2.32270000      -0.00050000
O       -2.29700000      -2.93150000       0.00810000
H        0.91300000       1.95340000       0.00340000
H       -0.64730000       1.82610000      -0.86070000
H       -0.62930000       1.81650000       0.89780000
H       -1.82130000      -0.52950000       0.88830000
H       -1.83730000      -0.52050000      -0.85590000
H       -0.43380000      -2.60630000      -0.89050000
H       -0.41760000      -2.61550000       0.87570000
H       -2.17320000      -3.88500000       0.00260000
