20
Properties=species:S:1:pos:R:3 gdb_113891=T pbc="F F F"
C       -0.10860000       1.24060000       0.08630000
C       -0.29440000      -0.23150000      -0.29770000
C        0.68310000      -0.68780000      -1.36040000
C        2.07680000      -1.15860000      -0.97590000
C        1.07190000      -2.13150000      -1.50410000
O        0.59070000      -3.07120000      -0.56170000
C       -0.52640000      -3.75100000      -0.94490000
N       -0.92280000      -4.58150000       0.06650000
O       -1.08610000      -3.61980000      -2.00600000
H        0.89720000       1.42170000       0.47970000
H       -0.24740000       1.89670000      -0.78010000
H       -0.83020000       1.54340000       0.85150000
H       -0.18490000      -0.86350000       0.59040000
H       -1.31680000      -0.39180000      -0.66260000
H        0.60770000      -0.14650000      -2.30080000
H        2.92680000      -0.90090000      -1.59760000
H        2.29500000      -1.22150000       0.08540000
H        1.18200000      -2.54990000      -2.49750000
H       -0.26940000      -4.79050000       0.80220000
H       -1.59260000      -5.28900000      -0.18210000
