27
Properties=species:S:1:pos:R:3 gdb_102406=T pbc="F F F"
C       -0.14770000       1.50230000      -0.19740000
C       -0.06240000      -0.01090000       0.03510000
C        0.74190000      -0.49120000       1.27390000
C        0.69700000      -2.04360000       1.26460000
C        1.44810000      -2.77000000       2.38680000
C        2.19490000       0.04670000       1.26570000
C        3.06090000      -0.35540000       0.06620000
C        0.08080000       0.03940000       2.55940000
O       -1.26280000      -0.42350000       2.62510000
H        0.83630000       1.96000000      -0.34120000
H       -0.73670000       1.71060000      -1.09640000
H       -0.63810000       2.01770000       0.63430000
H       -1.07830000      -0.40700000       0.13050000
H        0.36440000      -0.48270000      -0.85790000
H       -0.35580000      -2.34110000       1.30000000
H        1.07890000      -2.39430000       0.29840000
H        1.34200000      -3.85320000       2.26880000
H        2.52000000      -2.54730000       2.38570000
H        1.05450000      -2.51470000       3.37560000
H        2.16480000       1.14150000       1.32610000
H        2.69570000      -0.27920000       2.18560000
H        3.17860000      -1.44070000      -0.00930000
H        2.64060000      -0.00150000      -0.88010000
H        4.06250000       0.07620000       0.16060000
H        0.65440000      -0.30040000       3.43500000
H        0.11580000       1.13940000       2.56380000
H       -1.65910000      -0.08350000       3.43180000
