18
Properties=species:S:1:pos:R:3 gdb_55535=T pbc="F F F"
C        0.55660000       0.50260000      -0.60760000
C       -0.36510000      -0.00170000       0.48000000
O       -0.13450000       0.12100000       1.65760000
C       -1.65940000      -0.68970000       0.00380000
C       -1.35520000      -2.05830000      -0.60160000
O       -0.75890000      -2.20060000      -1.64800000
N       -1.71760000      -3.12860000       0.20430000
C       -3.06970000      -3.52930000       0.54490000
C       -2.18460000      -4.39020000      -0.31210000
H        1.51470000       0.79820000      -0.17880000
H        0.68290000      -0.26070000      -1.38050000
H        0.09490000       1.37200000      -1.09210000
H       -2.33010000      -0.77080000       0.85900000
H       -2.11830000      -0.08460000      -0.78490000
H       -3.24280000      -3.78780000       1.58560000
H       -3.89100000      -3.01190000       0.05460000
H       -2.39250000      -4.43850000      -1.37750000
H       -1.72530000      -5.27740000       0.11360000
