18
Properties=species:S:1:pos:R:3 gdb_92010=T pbc="F F F"
O        0.07240000       1.47280000      -0.03610000
C        0.12450000       0.06120000       0.05260000
C        0.62910000      -0.42840000       1.43600000
C       -0.63330000      -0.53970000       2.27250000
N       -1.51790000       0.63680000       2.10060000
C       -1.80390000      -0.61630000       1.36200000
C       -1.30360000      -0.56420000      -0.06880000
C       -2.18200000       0.19240000      -1.04220000
O       -3.29190000       0.58530000      -0.78960000
H       -0.49100000       1.74920000       0.70620000
H        0.77900000      -0.26760000      -0.75820000
H        1.10290000      -1.41380000       1.35390000
H        1.36400000       0.27380000       1.83940000
H       -0.62000000      -1.04510000       3.23230000
H       -2.15360000       0.72510000       2.88770000
H       -2.70320000      -1.16760000       1.60910000
H       -1.20960000      -1.59150000      -0.45480000
H       -1.73050000       0.34610000      -2.04680000
