17
Properties=species:S:1:pos:R:3 gdb_64568=T pbc="F F F"
O        0.04590000       1.46910000      -0.03080000
C        0.00270000       0.08910000       0.00280000
C        0.93910000      -0.50460000      -1.01500000
O        1.60570000       0.21130000      -1.72880000
C        0.05970000      -0.65800000       1.38120000
C       -0.98620000       0.09700000       2.22120000
C       -2.13200000       0.10710000       1.16120000
C       -1.38300000      -0.64530000       0.04660000
O       -0.71760000      -1.72530000       0.76420000
H        0.69000000       1.69180000      -0.72490000
H        0.98100000      -1.60490000      -1.07080000
H        0.98810000      -0.99080000       1.84510000
H       -1.24050000      -0.46420000       3.12230000
H       -0.64840000       1.09730000       2.49740000
H       -3.01590000      -0.44860000       1.47990000
H       -2.42410000       1.11290000       0.85470000
H       -1.92070000      -0.96520000      -0.84580000
