16
Properties=species:S:1:pos:R:3 gdb_10142=T pbc="F F F"
C       -0.03830000       1.38410000       0.01950000
O        0.03570000      -0.02280000       0.01080000
C        0.62510000      -0.53260000      -1.15630000
C        0.56260000      -2.07590000      -1.08010000
C       -0.81950000      -2.56440000      -1.09500000
C       -1.95170000      -2.96280000      -1.11520000
C        1.35780000      -2.66690000      -2.16030000
C        2.02460000      -3.12110000      -3.04970000
H        0.95960000       1.84610000      -0.04290000
H       -0.64670000       1.76440000      -0.81540000
H       -0.50600000       1.67830000       0.96170000
H        0.09780000      -0.18790000      -2.05900000
H        1.67950000      -0.22500000      -1.23990000
H        1.01620000      -2.35180000      -0.11760000
H       -2.95250000      -3.31730000      -1.12810000
H        2.60730000      -3.53760000      -3.83370000
