14
Properties=species:S:1:pos:R:3 gdb_18920=T pbc="F F F"
O       -0.08420000       1.39620000       0.08960000
C        0.04930000       0.02860000       0.04990000
C        0.02350000      -0.85000000      -1.18390000
O        1.00160000      -1.85100000      -1.15090000
C        1.07440000      -2.10730000       0.22570000
C       -0.26980000      -1.92970000       0.91080000
C        0.81800000      -0.86810000       1.05820000
C       -1.02840000      -1.03260000      -0.08460000
H        0.67470000       1.79020000      -0.35660000
H       -0.22480000      -0.47510000      -2.16770000
H        1.78610000      -2.87500000       0.49860000
H       -0.69210000      -2.60850000       1.63760000
H        1.38290000      -0.54740000       1.92220000
H       -2.09480000      -0.96110000      -0.24240000
