18
Properties=species:S:1:pos:R:3 gdb_70766=T pbc="F F F"
C        0.00230000       1.46240000      -0.03130000
C        0.02760000      -0.03900000      -0.05780000
C        0.56470000      -0.96760000      -1.16950000
C        0.05560000      -1.93640000      -0.08310000
C        0.06630000      -3.37400000      -0.08010000
N        0.07770000      -4.53110000      -0.08350000
C        0.53780000      -0.99850000       1.08700000
C       -0.83830000      -1.03370000       1.77850000
C       -1.16950000      -1.01300000       0.27420000
H        1.01510000       1.87260000      -0.10730000
H       -0.58210000       1.85910000      -0.86860000
H       -0.44290000       1.83840000       0.89610000
H        0.01810000      -0.97420000      -2.11750000
H        1.64520000      -0.96050000      -1.34280000
H        1.53900000      -1.01320000       1.52010000
H       -1.09100000      -1.94600000       2.32540000
H       -1.12010000      -0.14810000       2.35450000
H       -2.13640000      -1.04420000      -0.22990000
