16
Properties=species:S:1:pos:R:3 gdb_14310=T pbc="F F F"
C        0.27200000       1.50860000       0.01240000
C        0.12560000       0.00770000       0.05710000
O        0.67100000      -0.58560000      -1.11130000
C        1.10380000      -1.87030000      -0.73520000
C        2.45800000      -1.94150000      -0.03620000
O        3.33380000      -0.87150000      -0.02680000
C        1.18010000      -1.86800000       0.77170000
O        0.86920000      -0.54140000       1.15080000
H        1.32150000       1.77660000      -0.13220000
H       -0.31130000       1.91110000      -0.81930000
H       -0.09210000       1.94810000       0.94420000
H       -0.92940000      -0.29800000       0.16600000
H        0.71510000      -2.69040000      -1.32990000
H        2.96640000      -2.90120000      -0.08030000
H        2.91300000      -0.18460000       0.50820000
H        0.81870000      -2.64410000       1.43790000
