15
Properties=species:S:1:pos:R:3 gdb_3322=T pbc="F F F"
C        0.00270000       1.31740000      -0.14890000
O       -0.04600000       0.00760000       0.37180000
C       -1.26870000      -0.62720000       0.15900000
C       -1.63230000      -1.18990000      -1.27580000
C       -1.77450000      -2.56540000      -0.61390000
O       -0.49350000      -2.88690000      -0.07120000
C       -1.35670000      -2.05240000       0.70490000
H        0.98700000       1.72540000       0.09190000
H       -0.12860000       1.33110000      -1.24120000
H       -0.77000000       1.96230000       0.29920000
H       -2.10400000      -0.01690000       0.53920000
H       -2.55680000      -0.77190000      -1.67950000
H       -0.83410000      -1.13930000      -2.01930000
H       -2.43740000      -3.38550000      -0.86190000
H       -1.59070000      -2.37910000       1.71140000
