18
Properties=species:S:1:pos:R:3 gdb_99351=T pbc="F F F"
C        0.51770000       1.16040000      -0.15250000
O        0.08830000      -0.19110000       0.06910000
C        0.50960000      -0.75270000       1.21580000
O        1.21240000      -0.19770000       2.02370000
C       -0.04810000      -2.16830000       1.37350000
N        0.52520000      -2.93120000       2.46130000
C        1.91860000      -3.33140000       2.21880000
C        2.46970000      -4.04660000       3.36430000
C        2.93120000      -4.61560000       4.31620000
H        1.60850000       1.21550000      -0.18780000
H        0.08860000       1.45520000      -1.10990000
H        0.15850000       1.81380000       0.64640000
H       -1.13110000      -2.07190000       1.52230000
H        0.07860000      -2.70590000       0.42740000
H        0.49690000      -2.37520000       3.31050000
H        1.92900000      -3.99040000       1.33970000
H        2.57570000      -2.47750000       1.98390000
H        3.33840000      -5.12520000       5.15400000
