17
Properties=species:S:1:pos:R:3 gdb_13551=T pbc="F F F"
C       -0.44790000       1.36490000       0.00530000
N        0.01500000      -0.01480000       0.05760000
C        1.39580000      -0.30240000      -0.30510000
C        0.92780000      -0.44870000       1.10260000
C        1.43420000       0.49140000       2.18950000
N        0.40330000       0.67340000       3.21570000
C        2.71290000      -0.02950000       2.72560000
N        3.68990000      -0.44250000       3.18630000
H        0.34620000       2.11830000       0.13100000
H       -0.91120000       1.53550000      -0.97100000
H       -1.19790000       1.52200000       0.78440000
H        1.56460000      -1.17720000      -0.92660000
H        2.05370000       0.54070000      -0.51930000
H        0.71790000      -1.44890000       1.48200000
H        1.64750000       1.47290000       1.75430000
H        0.17340000      -0.22490000       3.63280000
H        0.75670000       1.25830000       3.96760000
