16
Properties=species:S:1:pos:R:3 gdb_49411=T pbc="F F F"
O        0.10540000       0.06620000      -0.51110000
C        0.08900000       1.24010000      -0.21220000
N        1.12970000       1.91420000       0.36050000
C        2.56490000       1.57950000       0.29250000
C        3.11470000       2.14400000      -1.05220000
C        3.67500000       3.39510000      -0.41870000
C        2.33360000       3.46040000      -1.11020000
C        1.52330000       3.33080000       0.21570000
C        2.90650000       2.99590000       0.87720000
H       -0.81010000       1.88290000      -0.31880000
H        2.89380000       0.61830000       0.67660000
H        3.43520000       1.61160000      -1.93650000
H        4.59450000       3.93480000      -0.59020000
H        2.05740000       3.93950000      -2.03930000
H        0.82670000       4.10560000       0.52930000
H        3.15570000       3.19280000       1.91570000
