13
Properties=species:S:1:pos:R:3 gdb_130253=T pbc="F F F"
N        0.06330000       1.41540000       0.05070000
C       -0.00520000       0.04520000      -0.04530000
N       -1.19740000      -0.48190000      -0.09140000
O       -1.21650000      -1.89030000      -0.30360000
C       -0.10720000      -2.62480000      -0.39930000
O       -0.14210000      -3.82120000      -0.57380000
C        1.17450000      -1.86530000      -0.27070000
N        2.26710000      -2.63330000      -0.33740000
N        1.21960000      -0.57910000      -0.10790000
H        0.90180000       1.75900000       0.49210000
H       -0.79240000       1.87020000       0.33050000
H        2.13760000      -3.62180000      -0.48270000
H        3.18390000      -2.22460000      -0.27810000
