16
Properties=species:S:1:pos:R:3 gdb_70657=T pbc="F F F"
O        0.18820000       1.24710000      -0.04300000
C       -0.01600000      -0.12190000      -0.03670000
C       -0.59030000      -0.86080000      -1.21340000
C       -1.39060000      -0.71930000       0.06720000
C       -1.28020000      -1.86030000       1.05690000
O        0.12100000      -2.16030000       1.14530000
C        0.84280000      -0.96070000       0.92010000
C        2.17200000      -1.28720000       0.38700000
N        3.22190000      -1.48020000      -0.05420000
H        0.90960000       1.44440000      -0.65160000
H       -0.90920000      -0.24490000      -2.04650000
H       -0.18330000      -1.83190000      -1.47760000
H       -2.26300000      -0.07800000       0.08080000
H       -1.67560000      -1.55810000       2.03790000
H       -1.77720000      -2.78400000       0.74730000
H        0.97710000      -0.37790000       1.84570000
