16
Properties=species:S:1:pos:R:3 gdb_48759=T pbc="F F F"
O       -0.51340000       0.53990000       0.52810000
C        0.32070000       0.85030000      -0.28590000
C        1.31960000       1.93120000      -0.07940000
C        1.47520000       2.57350000       1.27940000
C        1.97550000       3.99880000       1.00700000
O        2.42140000       4.75300000       1.82810000
C        1.82080000       4.30910000      -0.49420000
C        1.54010000       2.97900000      -1.15780000
N        2.48530000       1.88780000      -0.98430000
H        0.40070000       0.35430000      -1.27730000
H        0.50630000       2.60970000       1.79180000
H        2.16510000       2.04770000       1.94680000
H        0.98170000       5.00380000      -0.62510000
H        2.71470000       4.81470000      -0.87340000
H        0.98080000       2.95540000      -2.08810000
H        3.33150000       2.18290000      -0.50000000
