14
Properties=species:S:1:pos:R:3 gdb_5155=T pbc="F F F"
N       -0.04430000      -1.17190000      -0.00610000
C       -0.01330000      -0.01750000       0.00110000
C        0.01370000       1.45580000       0.01040000
N        1.34690000       2.01020000       0.00050000
C        2.11560000       2.25520000       1.11740000
C        3.34700000       2.69160000       0.69660000
C        3.33170000       2.70290000      -0.72750000
C        2.09140000       2.27300000      -1.12860000
H       -0.53770000       1.82070000      -0.86180000
H       -0.52000000       1.80920000       0.89830000
H        1.71280000       2.09650000       2.10520000
H        4.16470000       2.98280000       1.33730000
H        4.13550000       3.00440000      -1.38100000
H        1.66750000       2.12990000      -2.10990000
