25
Properties=species:S:1:pos:R:3 gdb_123258=T pbc="F F F"
C        0.02250000       1.53760000       0.08590000
C        0.02130000       0.01920000       0.02790000
O        0.69420000      -0.47710000       1.16500000
C        0.75110000      -1.88570000       1.21150000
C        1.49510000      -2.30610000       2.47180000
C        1.60960000      -3.82720000       2.61340000
C        2.35760000      -4.25340000       3.88000000
C        2.47210000      -5.76510000       4.02230000
O        3.17850000      -6.04190000       5.22260000
H        1.04720000       1.91990000       0.09900000
H       -0.49310000       1.95420000      -0.78460000
H       -0.48380000       1.88710000       0.99020000
H       -1.01300000      -0.36560000      -0.00160000
H        0.51780000      -0.33280000      -0.89310000
H       -0.26820000      -2.31150000       1.20770000
H        1.26270000      -2.27910000       0.31480000
H        2.49390000      -1.85330000       2.45600000
H        0.97610000      -1.88510000       3.34130000
H        0.60390000      -4.27040000       2.61570000
H        2.11990000      -4.23870000       1.73130000
H        3.36790000      -3.82650000       3.88320000
H        1.85040000      -3.85820000       4.76870000
H        1.46500000      -6.21400000       4.04010000
H        2.99650000      -6.18210000       3.14620000
H        3.25190000      -6.99610000       5.31530000
