16
Properties=species:S:1:pos:R:3 gdb_28718=T pbc="F F F"
C        0.07010000       1.41960000       0.00180000
C       -0.03450000      -0.05750000      -0.11330000
N       -0.26760000      -0.77340000      -1.16690000
C       -0.25530000      -2.08600000      -0.71070000
C       -0.01770000      -2.10130000       0.62280000
C        0.13860000      -3.15770000       1.65670000
C        1.59410000      -3.35700000       2.07810000
O        2.10270000      -4.43200000       2.24610000
O        0.13040000      -0.79360000       1.02150000
H        1.05640000       1.71820000       0.37190000
H       -0.08970000       1.86110000      -0.98200000
H       -0.67680000       1.81540000       0.69770000
H       -0.42340000      -2.92060000      -1.37280000
H       -0.42430000      -2.88120000       2.55990000
H       -0.25140000      -4.11230000       1.29700000
H        2.16060000      -2.41150000       2.22840000
