19
Properties=species:S:1:pos:R:3 gdb_94404=T pbc="F F F"
C       -0.30610000       1.41350000      -0.06870000
C        0.09370000      -0.05350000      -0.09220000
C        1.42410000      -0.39320000      -0.80010000
O        2.03470000      -0.79840000       0.44470000
C        0.81720000      -0.63020000       1.16590000
C        0.82590000       0.06970000       2.55170000
C       -0.11220000      -1.03000000       3.13170000
C        0.16470000      -1.85320000       1.85780000
O        0.01560000      -2.99760000       1.54530000
H        0.52740000       2.05080000       0.24430000
H       -0.61830000       1.73810000      -1.06720000
H       -1.14460000       1.59280000       0.61260000
H       -0.74370000      -0.67540000      -0.41800000
H        1.37820000      -1.22010000      -1.51730000
H        1.95270000       0.45370000      -1.25430000
H        1.82860000       0.03310000       2.98420000
H        0.46080000       1.09690000       2.58160000
H        0.18160000      -1.50500000       4.07030000
H       -1.16220000      -0.72970000       3.20880000
