14
Properties=species:S:1:pos:R:3 gdb_42309=T pbc="F F F"
O       -0.15470000      -0.04330000      -0.06540000
C       -0.10500000       1.15470000      -0.02800000
C        1.18610000       1.86810000       0.12120000
N        2.16950000       2.46450000       0.24290000
C       -1.31980000       2.09540000      -0.09880000
O       -2.47660000       1.38750000      -0.46210000
C       -3.37650000       1.30930000       0.64810000
C       -2.77670000       2.20740000       1.69160000
C       -1.60780000       2.67690000       1.27170000
H       -1.09330000       2.86910000      -0.85050000
H       -4.37190000       1.63740000       0.31950000
H       -3.46460000       0.26910000       0.99430000
H       -3.25530000       2.41890000       2.63890000
H       -0.92920000       3.33930000       1.79100000
