23
Properties=species:S:1:pos:R:3 gdb_58268=T pbc="F F F"
C        0.05990000       1.55180000      -0.09290000
C        0.04380000       0.02580000      -0.05730000
O        0.80690000      -0.48370000       1.03370000
C       -1.38970000      -0.54460000      -0.06140000
O       -2.10020000      -0.07820000      -1.21060000
C       -1.44050000      -2.06470000       0.03010000
C       -1.17990000      -2.78430000       1.38360000
C       -2.33170000      -3.76710000       1.04220000
C       -2.83970000      -2.74270000      -0.00850000
H        1.08680000       1.92240000      -0.15180000
H       -0.51030000       1.92330000      -0.94700000
H       -0.40030000       1.96060000       0.81650000
H        0.55430000      -0.36150000      -0.95110000
H        0.47530000      -0.07210000       1.83940000
H       -1.93910000      -0.11840000       0.79170000
H       -1.74510000      -0.54080000      -1.97820000
H       -0.79130000      -2.49200000      -0.74720000
H       -0.18150000      -3.18760000       1.55640000
H       -1.44180000      -2.13940000       2.22910000
H       -1.95830000      -4.68120000       0.57100000
H       -3.01500000      -4.04980000       1.84660000
H       -3.60620000      -2.07970000       0.40490000
H       -3.19870000      -3.12410000      -0.96730000
