17
Properties=species:S:1:pos:R:3 gdb_70218=T pbc="F F F"
O       -0.09970000       1.42340000      -0.30550000
C       -0.08150000       0.04520000      -0.07600000
C       -0.44710000      -0.91110000      -1.18050000
C       -1.39410000      -0.65960000      -0.01610000
C       -1.55120000      -1.68590000       1.08730000
C       -0.27190000      -2.43970000       1.42490000
O       -0.24960000      -3.57920000       1.79770000
O        0.90450000      -1.77150000       1.27480000
C        0.92220000      -0.37010000       0.98350000
H        0.65500000       1.64630000      -0.86240000
H       -0.72300000      -0.46530000      -2.12920000
H        0.06850000      -1.86310000      -1.25140000
H       -2.27370000      -0.06450000      -0.23680000
H       -1.88430000      -1.18580000       2.00760000
H       -2.30350000      -2.44270000       0.85260000
H        1.94810000      -0.16000000       0.66400000
H        0.73080000       0.20550000       1.89870000
