17
Properties=species:S:1:pos:R:3 gdb_127512=T pbc="F F F"
C       -0.05290000       1.37420000      -0.07470000
N        0.08710000      -0.05740000       0.03230000
N        0.06760000      -0.81330000      -1.09820000
C        0.07960000      -2.06010000      -0.65900000
O        0.09340000      -3.14280000      -1.47580000
C        0.09190000      -2.13120000       0.74660000
O        0.11730000      -3.23830000       1.54550000
C        0.08760000      -0.81640000       1.17020000
C        0.09090000      -0.26200000       2.55420000
H        0.55190000       1.87160000       0.68820000
H        0.30180000       1.67140000      -1.06210000
H       -1.09590000       1.69740000       0.03820000
H        0.08760000      -2.81820000      -2.38430000
H        0.13130000      -4.01160000       0.97190000
H        0.96930000       0.36540000       2.74720000
H       -0.79880000       0.34430000       2.76190000
H        0.10740000      -1.08820000       3.26830000
