20
Properties=species:S:1:pos:R:3 gdb_57888=T pbc="F F F"
C        0.67410000       1.31610000      -1.71650000
N        0.36360000       0.02550000      -1.12230000
C        0.86710000      -0.17630000       0.22500000
C       -0.40820000      -0.85030000      -1.82950000
O       -0.88480000      -0.58920000      -2.92470000
C       -0.73250000      -2.21070000      -1.21710000
C       -2.07870000      -2.27910000      -0.53030000
C       -0.16790000      -3.38990000      -1.88110000
O        0.33220000      -2.95710000      -0.60810000
H        1.76010000       1.46600000      -1.75170000
H        0.26410000       1.33970000      -2.72460000
H        0.23570000       2.13030000      -1.12540000
H        0.47870000       0.60440000       0.89260000
H        0.58530000      -1.15030000       0.61280000
H        1.96260000      -0.11160000       0.23660000
H       -2.86480000      -1.96750000      -1.22390000
H       -2.28000000      -3.29900000      -0.19300000
H       -2.11080000      -1.61590000       0.34070000
H       -0.72240000      -4.32700000      -1.86790000
H        0.51220000      -3.26030000      -2.72020000
