18
Properties=species:S:1:pos:R:3 gdb_93267=T pbc="F F F"
C        0.15160000       1.61700000       0.00300000
C       -0.01680000       0.09100000      -0.02540000
O       -1.38400000      -0.25720000      -0.07400000
C        0.77160000      -0.57350000      -1.17630000
O        0.89850000       0.16550000      -2.36810000
C        2.15820000      -0.75950000      -0.54970000
O        1.92280000      -0.94150000       0.86190000
C        0.66480000      -0.54250000       1.17780000
N        0.08800000      -0.67980000       2.29110000
H        1.20320000       1.91830000       0.02820000
H       -0.30570000       2.05080000      -0.88880000
H       -0.34590000       2.01400000       0.89120000
H       -1.65280000      -0.39720000       0.84590000
H        0.30660000      -1.55240000      -1.35910000
H        0.04020000       0.17320000      -2.80430000
H        2.69400000      -1.63680000      -0.91560000
H        2.77350000       0.13180000      -0.71400000
H        0.67840000      -1.14260000       2.98200000
