16
Properties=species:S:1:pos:R:3 gdb_25780=T pbc="F F F"
C       -0.01360000       1.51920000      -0.06290000
C       -0.00540000       0.02360000       0.00590000
C       -0.04220000      -0.85100000      -1.03950000
O       -0.02110000      -2.13840000      -0.60690000
C        0.03200000      -2.09190000       0.75940000
C        0.04280000      -0.79680000       1.17960000
C        0.06680000      -3.35320000       1.52320000
N        0.04040000      -4.48620000       0.76410000
O        0.11430000      -3.35610000       2.74130000
H        0.88570000       1.94470000       0.39570000
H       -0.05740000       1.86780000      -1.09830000
H       -0.87530000       1.93830000       0.46810000
H       -0.08380000      -0.71470000      -2.10840000
H        0.08120000      -0.47910000       2.20950000
H        0.00600000      -4.44850000      -0.23930000
H        0.06640000      -5.37480000       1.23370000
