22
Properties=species:S:1:pos:R:3 gdb_76493=T pbc="F F F"
C       -0.00640000       1.63900000      -0.15650000
C        0.05840000       0.12790000      -0.08760000
N        1.31720000      -0.63170000      -0.13860000
C        2.58720000       0.06380000      -0.27390000
C        0.58150000      -0.57100000       1.11620000
C        1.07800000       0.02940000       2.44500000
C        0.94240000      -1.39480000       3.06420000
O        0.42340000      -1.53900000       4.36080000
C        0.09480000      -1.83540000       1.83500000
H        0.71060000       2.12270000       0.51090000
H        0.17870000       2.00010000      -1.17440000
H       -1.00650000       1.97840000       0.13450000
H       -0.74070000      -0.36540000      -0.64280000
H        2.66760000       1.01350000       0.27500000
H        3.38860000      -0.59450000       0.07820000
H        2.76790000       0.27010000      -1.33380000
H        2.06610000       0.49510000       2.47360000
H        0.35400000       0.72840000       2.88120000
H        1.90860000      -1.90660000       3.07810000
H       -0.44520000      -1.12320000       4.38220000
H       -0.97930000      -1.80160000       2.05580000
H        0.33330000      -2.79260000       1.36640000
