20
Properties=species:S:1:pos:R:3 gdb_116235=T pbc="F F F"
C       -0.00540000       1.36690000      -0.22060000
N       -0.05760000      -0.08450000      -0.32370000
C       -1.11010000      -0.70090000       0.01010000
O       -2.25040000      -0.10420000       0.46040000
C       -3.23520000      -1.10600000       0.77970000
C       -2.81650000      -2.35240000      -0.00790000
C       -1.28790000      -2.20660000      -0.05600000
C       -0.58430000      -2.81830000      -1.27620000
O        0.80740000      -2.63200000      -1.22940000
H        1.02220000       1.67090000      -0.00260000
H       -0.28500000       1.82260000      -1.17880000
H       -0.66990000       1.76960000       0.55180000
H       -3.21940000      -1.28250000       1.86230000
H       -4.21330000      -0.70710000       0.50300000
H       -3.15510000      -3.27840000       0.46110000
H       -3.23000000      -2.31320000      -1.02230000
H       -0.83450000      -2.63700000       0.84710000
H       -0.77090000      -3.89820000      -1.30430000
H       -1.03060000      -2.38490000      -2.18890000
H        0.93280000      -1.67930000      -1.07010000
