22
Properties=species:S:1:pos:R:3 gdb_119951=T pbc="F F F"
C        0.04060000       1.43670000      -0.35090000
C       -0.03480000      -0.08850000      -0.24770000
C       -1.43970000      -0.59020000       0.12020000
C       -1.50730000      -2.09160000       0.30280000
C       -2.78810000      -2.89460000       0.19080000
C       -4.13440000      -2.28900000      -0.13390000
N       -1.74750000      -2.99790000      -0.80740000
C       -1.83110000      -2.75920000      -2.15670000
O       -2.74440000      -3.10840000      -2.87000000
H        1.05050000       1.76730000      -0.61110000
H       -0.64250000       1.81660000      -1.11850000
H       -0.23190000       1.91160000       0.59820000
H        0.27640000      -0.53810000      -1.19890000
H        0.68220000      -0.44350000       0.50390000
H       -1.75160000      -0.11850000       1.06230000
H       -2.15580000      -0.26570000      -0.64250000
H       -0.77110000      -2.47240000       1.01270000
H       -2.84830000      -3.77220000       0.83500000
H       -4.05120000      -1.37330000      -0.72160000
H       -4.73190000      -2.99580000      -0.71540000
H       -4.67090000      -2.05950000       0.79240000
H       -0.91460000      -2.27420000      -2.54730000
