15
Properties=species:S:1:pos:R:3 gdb_69015=T pbc="F F F"
C       -0.03260000       1.58280000       0.05390000
C        0.02310000       0.08650000       0.01030000
C       -0.90610000      -0.85000000       0.78880000
C        0.57230000      -0.96400000       0.97660000
O        1.10420000      -1.74970000      -0.14010000
C        0.70710000      -0.76320000      -1.03460000
O        0.93730000      -0.70870000      -2.19750000
C        1.32790000      -0.85200000       2.16720000
C        1.95890000      -0.75100000       3.18580000
H        0.93490000       2.02140000      -0.20590000
H       -0.77730000       1.96160000      -0.65330000
H       -0.30920000       1.93000000       1.05360000
H       -1.45320000      -0.36120000       1.58940000
H       -1.42830000      -1.66060000       0.29060000
H        2.52130000      -0.66730000       4.08310000
