19
Properties=species:S:1:pos:R:3 gdb_90897=T pbc="F F F"
C       -0.12090000       1.56260000      -0.04670000
C        0.04230000       0.05490000       0.01430000
O        0.83910000      -0.39810000      -1.09080000
C        1.53060000      -1.55100000      -0.64950000
C        2.58160000      -1.40200000       0.43270000
C        2.30070000      -0.12330000       1.22110000
C        0.78280000      -0.52410000       1.23700000
O        0.08940000      -0.47450000       2.44900000
C        1.17970000      -1.94020000       0.74210000
H        0.84330000       2.07470000       0.01350000
H       -0.60240000       1.85480000      -0.98390000
H       -0.75870000       1.90750000       0.77500000
H       -0.95140000      -0.42250000      -0.02760000
H        1.68590000      -2.28770000      -1.42830000
H        3.52220000      -1.94010000       0.39720000
H        2.69980000      -0.18540000       2.23650000
H        2.58390000       0.83130000       0.76630000
H        0.02070000       0.44750000       2.72060000
H        0.81850000      -2.89120000       1.10880000
