22
Properties=species:S:1:pos:R:3 gdb_110297=T pbc="F F F"
C       -0.09800000       1.61140000       0.02420000
C        0.07800000       0.08960000       0.04120000
C        0.72280000      -0.46370000      -1.22800000
C        0.80840000      -2.00870000      -1.27370000
C       -0.06900000      -2.06010000      -2.50510000
C       -0.19840000      -0.51930000      -2.50770000
O       -1.52290000      -0.05520000      -2.36300000
N        1.29520000      -2.53130000      -2.52900000
C        2.34570000      -1.90150000      -3.31540000
H        0.86540000       2.11500000      -0.11330000
H       -0.75900000       1.91280000      -0.79220000
H       -0.52860000       1.96950000       0.96470000
H        0.70420000      -0.20360000       0.89410000
H       -0.89310000      -0.39350000       0.21540000
H        1.68200000       0.04470000      -1.38560000
H        0.82690000      -2.65790000      -0.40230000
H       -0.86880000      -2.74090000      -2.78550000
H        0.18880000      -0.00540000      -3.39220000
H       -1.95460000      -0.57710000      -1.67790000
H        2.33920000      -0.80270000      -3.32280000
H        3.31480000      -2.23060000      -2.92790000
H        2.26060000      -2.24780000      -4.34990000
