23
Properties=species:S:1:pos:R:3 gdb_114323=T pbc="F F F"
C       -0.18120000       1.40530000       0.17140000
O        0.31850000       0.11740000      -0.10910000
C        0.74620000      -0.57330000       1.04110000
C       -0.30870000      -1.21990000       2.00410000
C        0.39970000      -2.56290000       1.80170000
C        0.38380000      -2.97210000       0.35320000
C       -0.76550000      -2.77860000      -0.61620000
C        1.39020000      -1.93490000       0.79160000
C        2.87320000      -2.12010000       0.62440000
H        0.57780000       2.03640000       0.66090000
H       -0.45980000       1.86330000      -0.78080000
H       -1.06910000       1.37260000       0.82090000
H        1.43190000       0.06800000       1.61790000
H       -0.24410000      -0.83320000       3.02350000
H       -1.35160000      -1.17320000       1.67610000
H        0.61760000      -3.26960000       2.59440000
H        0.88120000      -3.93270000       0.21870000
H       -1.21570000      -1.78950000      -0.53370000
H       -0.41410000      -2.88550000      -1.64820000
H       -1.54280000      -3.53360000      -0.44950000
H        3.20590000      -1.77480000      -0.36200000
H        3.43700000      -1.55810000       1.37860000
H        3.15390000      -3.17460000       0.71530000
