18
Properties=species:S:1:pos:R:3 gdb_60704=T pbc="F F F"
C        0.05130000       1.57220000      -0.09820000
C       -0.04750000       0.03610000       0.06250000
C        0.60670000      -0.63050000      -1.15300000
O        0.00070000      -1.20070000      -2.01840000
C        0.61150000      -0.42810000       1.27820000
C        1.19360000      -0.82580000       2.25760000
C        1.89310000      -1.29910000       3.41830000
C        1.21970000      -2.24660000       4.35860000
N        2.31250000      -2.72090000       3.50690000
H        1.09570000       1.88770000      -0.17830000
H       -0.48380000       1.89280000      -0.99620000
H       -0.38680000       2.06850000       0.77080000
H       -1.10150000      -0.26340000       0.05630000
H        1.71460000      -0.52620000      -1.17710000
H        2.63030000      -0.61400000       3.82910000
H        1.45340000      -2.19070000       5.41800000
H        0.20090000      -2.54010000       4.12450000
H        1.93070000      -3.22430000       2.70940000
