17
Properties=species:S:1:pos:R:3 gdb_105659=T pbc="F F F"
N       -0.15940000       1.38520000       0.18420000
C        0.08440000      -0.04290000       0.02180000
C        0.98190000      -0.51870000       1.16220000
O        0.32710000      -0.34580000       2.44580000
C        0.16380000      -1.77310000       2.62150000
C        1.03260000      -2.07550000       1.39340000
O        0.41490000      -2.90380000       0.45240000
C        2.29620000       0.13280000       1.14270000
N        3.36940000       0.56100000       1.12080000
H       -0.75260000       1.72890000      -0.56290000
H       -0.65580000       1.53850000       1.05690000
H       -0.81370000      -0.67830000       0.02490000
H        0.60000000      -0.21440000      -0.93050000
H        0.53870000      -2.11050000       3.59180000
H       -0.87680000      -2.09120000       2.49100000
H        2.04230000      -2.41440000       1.64410000
H        1.07020000      -3.19190000      -0.19080000
