15
Properties=species:S:1:pos:R:3 gdb_42619=T pbc="F F F"
N       -0.06860000       1.28240000       0.06610000
C       -0.01740000       0.02220000       0.00900000
N       -1.15930000      -0.82340000      -0.04790000
C       -1.25820000      -1.77110000      -1.19030000
C        0.09430000      -2.02400000      -1.86650000
C        0.72950000      -2.21030000      -0.43110000
C       -0.72570000      -2.22050000       0.12220000
C        1.24330000      -0.84880000      -0.01860000
O        2.36400000      -0.45980000       0.17710000
H        0.89230000       1.63480000       0.14410000
H       -2.24050000      -1.88470000      -1.63130000
H        0.09050000      -2.97610000      -2.40100000
H        0.50960000      -1.24590000      -2.51370000
H        1.40470000      -3.04750000      -0.28070000
H       -1.14470000      -2.81920000       0.92070000
