20
Properties=species:S:1:pos:R:3 gdb_108623=T pbc="F F F"
C        0.20410000       1.51840000       0.11320000
C        0.05030000       0.03490000      -0.01040000
C       -0.18950000      -0.71170000      -1.10260000
C       -0.28550000      -0.26000000      -2.52730000
O        0.74440000      -0.82870000      -3.33840000
C       -0.27530000      -2.19560000      -0.77320000
C        0.04300000      -2.24910000       0.71330000
N        1.39700000      -1.75680000       1.05010000
C        0.21500000      -0.85160000       1.18540000
H        1.19730000       1.77450000       0.50330000
H        0.06760000       2.03880000      -0.83750000
H       -0.52480000       1.92900000       0.82390000
H       -1.22270000      -0.60880000      -2.97870000
H       -0.28230000       0.83730000      -2.59530000
H        1.58170000      -0.63640000      -2.90240000
H       -1.27970000      -2.59000000      -0.98190000
H        0.42840000      -2.78250000      -1.37290000
H       -0.39930000      -3.01690000       1.33880000
H        1.63710000      -2.11020000       1.97570000
H       -0.07010000      -0.51470000       2.17740000
