11
Properties=species:S:1:pos:R:3 gdb_23846=T pbc="F F F"
F        0.02240000       0.10590000      -0.37280000
C       -0.01930000       1.38530000      -0.03250000
N       -1.18350000       1.87950000       0.14600000
O       -1.22540000       3.22610000       0.50460000
C       -0.08910000       4.01260000       0.66670000
N       -0.19340000       5.23370000       0.99450000
C        1.19290000       3.36600000       0.44300000
C        1.24090000       2.07150000       0.09800000
H       -1.17300000       5.50110000       1.10530000
H        2.07240000       3.98400000       0.57090000
H        2.15980000       1.52810000      -0.08340000
