18
Properties=species:S:1:pos:R:3 gdb_12386=T pbc="F F F"
C       -0.06110000       1.53790000      -0.02110000
C        0.05470000       0.01600000      -0.00020000
N        0.73810000      -0.47110000      -1.20000000
C        0.93650000      -1.91250000      -1.16420000
C        1.96010000      -2.21240000      -0.07570000
N        1.55380000      -1.56540000       1.16310000
C        0.76920000      -0.45370000       1.27700000
O        0.59070000       0.10010000       2.34720000
H        0.92650000       1.99190000      -0.14000000
H       -0.69280000       1.86270000      -0.85450000
H       -0.49900000       1.88690000       0.91470000
H       -0.96490000      -0.41150000       0.08840000
H        0.20710000      -0.20210000      -2.02120000
H        0.00620000      -2.47410000      -0.95560000
H        1.32320000      -2.25280000      -2.12920000
H        2.03220000      -3.29310000       0.09070000
H        2.94680000      -1.85200000      -0.39820000
H        2.02770000      -1.81590000       2.01930000
