18
Properties=species:S:1:pos:R:3 gdb_117323=T pbc="F F F"
C       -0.39290000       1.38290000       0.16470000
O       -0.41300000       0.02140000       0.53000000
C       -1.15540000      -0.75990000      -0.35410000
C       -1.09260000      -2.21190000       0.08460000
O       -0.45210000      -2.65810000       0.99150000
O       -1.88260000      -2.94250000      -0.75190000
C       -1.99270000      -4.32670000      -0.56700000
C       -2.64670000      -4.72700000       0.72490000
N       -1.60770000      -5.03430000      -1.53290000
H        0.20950000       1.90610000       0.91010000
H        0.05780000       1.53210000      -0.82890000
H       -1.40460000       1.81800000       0.15270000
H       -2.21510000      -0.45560000      -0.39730000
H       -0.77310000      -0.70330000      -1.38790000
H       -2.82480000      -5.80360000       0.74790000
H       -2.00760000      -4.44480000       1.56470000
H       -3.60140000      -4.20320000       0.83890000
H       -1.78750000      -6.01980000      -1.34260000
