9
Properties=species:S:1:pos:R:3 gdb_500=T pbc="F F F"
O        0.03850000       0.05850000      -0.00860000
C        0.18030000       1.22470000      -0.18810000
O        0.73830000       2.03610000       0.75100000
C        0.87910000       3.41190000       0.41490000
C        2.18390000       3.69500000      -0.19650000
N        3.20400000       3.92530000      -0.68580000
H       -0.12510000       1.77130000      -1.10080000
H        0.08430000       3.74110000      -0.26610000
H        0.78190000       3.97490000       1.34610000
