18
Properties=species:S:1:pos:R:3 gdb_87614=T pbc="F F F"
C       -0.13880000       1.46590000      -0.09200000
N        0.02860000       0.02290000       0.03050000
C        1.35180000      -0.51210000      -0.19610000
C        0.78550000      -0.48600000       1.19440000
C        1.29870000       0.33530000       2.31790000
C        1.12460000      -0.27890000       3.49300000
C        0.47140000      -1.62910000       3.35190000
C        0.26330000      -1.76130000       1.83490000
O       -0.20110000      -2.70440000       1.25120000
H        0.76670000       2.05040000       0.13430000
H       -0.43510000       1.68810000      -1.12170000
H       -0.94130000       1.79690000       0.57380000
H        1.39430000      -1.46690000      -0.71420000
H        2.16560000       0.18210000      -0.40710000
H        1.75700000       1.30730000       2.18720000
H        1.42320000       0.12780000       4.45190000
H        1.09270000      -2.45670000       3.71630000
H       -0.48770000      -1.71180000       3.87880000
