18
Properties=species:S:1:pos:R:3 gdb_103580=T pbc="F F F"
C       -0.05470000       1.57990000       0.01930000
C       -0.02370000       0.05160000       0.07980000
C       -1.44460000      -0.55180000       0.02540000
O       -2.11680000      -0.18730000      -1.15830000
O        0.66510000      -0.44620000      -1.09290000
C        1.73100000      -1.22490000      -0.73120000
N        2.44130000      -1.77540000      -1.62420000
C        1.79310000      -1.22960000       0.74370000
C        0.78960000      -0.49520000       1.22100000
H        0.95770000       1.97810000      -0.07810000
H       -0.65450000       1.89940000      -0.83510000
H       -0.50680000       1.98530000       0.93000000
H       -1.36270000      -1.64400000       0.12910000
H       -2.04120000      -0.17310000       0.86210000
H       -1.56120000      -0.48560000      -1.88900000
H        3.19050000      -2.31200000      -1.19110000
H        2.55410000      -1.76070000       1.29880000
H        0.55150000      -0.29440000       2.25780000
