16
Properties=species:S:1:pos:R:3 gdb_46423=T pbc="F F F"
O        0.29900000       0.06810000       0.09540000
C        0.12850000       1.25810000       0.04610000
N       -0.98140000       2.05690000       0.07730000
C       -0.25570000       3.33200000       0.10360000
C        1.05630000       2.50630000      -0.03970000
N        1.97410000       2.60960000       1.07840000
C        3.02030000       1.58370000       1.03240000
C        3.90510000       1.69860000       2.19340000
N        4.61890000       1.80630000       3.09490000
H       -1.95350000       1.83440000       0.23460000
H       -0.49130000       4.00110000      -0.72860000
H       -0.32510000       3.86500000       1.05620000
H        1.52680000       2.60730000      -1.03170000
H        2.40320000       3.52990000       1.09610000
H        2.53930000       0.60030000       1.03900000
H        3.64430000       1.62430000       0.12160000
