16
Properties=species:S:1:pos:R:3 gdb_27929=T pbc="F F F"
C        0.13460000       1.46610000       0.00890000
C       -0.06360000      -0.00320000      -0.02490000
C       -1.12960000      -0.82230000      -0.10510000
C       -0.63800000      -2.18410000      -0.08870000
C       -1.40620000      -3.40280000      -0.13820000
O       -2.61800000      -3.46940000      -0.21220000
C        0.73620000      -2.06520000      -0.00060000
N        1.76170000      -2.97120000      -0.01420000
O        1.10310000      -0.77390000       0.03980000
H        0.74640000       1.81260000      -0.83230000
H       -0.83540000       1.96480000      -0.04620000
H        0.63320000       1.78800000       0.93080000
H       -2.16690000      -0.53490000      -0.16630000
H       -0.79580000      -4.33890000      -0.10090000
H        1.51330000      -3.91390000       0.24310000
H        2.61960000      -2.64790000       0.40900000
