22
Properties=species:S:1:pos:R:3 gdb_10300=T pbc="F F F"
C        0.01490000       1.60740000       0.06780000
C       -0.03090000       0.07990000      -0.01800000
C        0.72210000      -0.49980000      -1.24160000
C        2.12350000      -0.07580000      -1.21540000
C        3.27590000       0.26490000      -1.15750000
C        0.61930000      -2.05180000      -1.35800000
C       -0.83700000      -2.53840000      -1.37510000
C        1.35590000      -2.56180000      -2.60450000
H        1.04320000       1.97020000       0.14720000
H       -0.43330000       2.06580000      -0.82110000
H       -0.54090000       1.96320000       0.94070000
H        0.39350000      -0.35820000       0.89380000
H       -1.07500000      -0.24240000      -0.06810000
H        0.25880000      -0.07610000      -2.14690000
H        4.29220000       0.57050000      -1.12290000
H        1.11440000      -2.47220000      -0.47220000
H       -0.87000000      -3.61900000      -1.54660000
H       -1.36010000      -2.34130000      -0.43640000
H       -1.40220000      -2.06040000      -2.18470000
H        2.40120000      -2.24470000      -2.61140000
H        1.32880000      -3.65530000      -2.64780000
H        0.88220000      -2.18290000      -3.51860000
