20
Properties=species:S:1:pos:R:3 gdb_16423=T pbc="F F F"
O        0.40370000       0.96190000      -0.80150000
C        0.05970000      -0.13670000       0.03530000
C        0.61480000       0.05410000       1.46650000
C       -0.16830000      -0.73560000       2.54320000
C       -1.64200000      -0.90380000       2.13790000
C       -1.71570000      -1.73310000       0.82710000
C       -1.45570000      -0.39870000       0.07820000
C       -2.12480000       0.31310000       1.29280000
H        0.00080000       1.75230000      -0.42510000
H        0.53840000      -0.99660000      -0.44840000
H        1.68370000      -0.17500000       1.49710000
H        0.53530000       1.12450000       1.69230000
H        0.27150000      -1.72870000       2.69670000
H       -0.08920000      -0.21090000       3.50210000
H       -2.25820000      -1.22460000       2.98150000
H       -0.98970000      -2.54310000       0.69560000
H       -2.72110000      -2.11790000       0.63620000
H       -1.88570000      -0.26120000      -0.91660000
H       -3.21320000       0.32350000       1.19310000
H       -1.79020000       1.31640000       1.57640000
