19
Properties=species:S:1:pos:R:3 gdb_71673=T pbc="F F F"
O       -0.09320000       1.40950000      -0.01900000
C        0.04590000       0.02370000      -0.00170000
C        0.92660000      -0.78500000      -1.00350000
C        0.73300000      -1.90250000       0.06220000
C       -0.78680000      -2.15800000       0.05310000
C       -1.41590000      -1.53040000       1.28460000
C       -0.30470000      -1.10230000       2.22700000
C        0.73310000      -0.78340000       1.16100000
C       -1.29210000      -0.72990000       0.00310000
H        0.78610000       1.80070000      -0.03630000
H        0.54210000      -0.95510000      -2.01310000
H        1.95900000      -0.42010000      -1.04740000
H        1.40050000      -2.76090000       0.11990000
H       -1.24590000      -2.97030000      -0.49440000
H       -2.38530000      -1.85990000       1.63880000
H       -0.57150000      -0.22240000       2.82320000
H        0.01010000      -1.90260000       2.90640000
H        1.71590000      -0.42450000       1.46700000
H       -2.13440000      -0.39760000      -0.58820000
