19
Properties=species:S:1:pos:R:3 gdb_36162=T pbc="F F F"
C       -0.04340000      -1.20580000       0.07200000
C       -0.01640000      -0.00540000       0.01440000
C        0.05260000       1.45070000      -0.05760000
C        1.47790000       1.96970000      -0.07960000
C        2.58620000       1.69190000      -1.11480000
C        3.24160000       2.63850000      -0.09190000
C        1.92620000       3.46690000       0.10990000
C        1.99260000       3.33350000       1.64430000
C        2.49870000       1.97590000       1.11840000
H       -0.08110000      -2.26550000       0.12300000
H       -0.47370000       1.79820000      -0.95700000
H       -0.48260000       1.88760000       0.79630000
H        2.96790000       0.66720000      -1.15850000
H        2.42660000       2.08790000      -2.12390000
H        4.25480000       3.04160000      -0.07310000
H        1.60110000       4.31210000      -0.50030000
H        2.72540000       3.96340000       2.15870000
H        1.04280000       3.33700000       2.18930000
H        2.83140000       1.09650000       1.67190000
