19
Properties=species:S:1:pos:R:3 gdb_18637=T pbc="F F F"
C        0.06090000       1.66320000       0.18180000
C        0.02520000       0.16600000      -0.03920000
C        0.52730000      -0.56050000      -1.23830000
C        1.45680000       0.13240000      -2.22160000
O        0.76320000       1.17690000      -2.89710000
C        2.66300000       0.61530000      -1.36870000
C        2.51470000      -0.09690000      -0.00280000
N        1.18600000      -0.73970000       0.07130000
H        0.75600000       2.19090000      -0.46880000
H       -0.93430000       2.07380000      -0.01680000
H        0.30630000       1.89210000       1.22560000
H       -0.84570000      -0.29030000       0.43110000
H       -0.03670000      -1.40900000      -1.61740000
H        1.79310000      -0.61510000      -2.95490000
H        1.33550000       1.50910000      -3.59590000
H        3.61690000       0.37320000      -1.84630000
H        2.61810000       1.70330000      -1.27490000
H        3.25800000      -0.89330000       0.10470000
H        2.65250000       0.58500000       0.84270000
