17
Properties=species:S:1:pos:R:3 gdb_48199=T pbc="F F F"
O        0.16680000       0.00200000       0.38590000
C        0.13680000       1.10740000      -0.08430000
C        1.35000000       2.04420000      -0.10760000
C        1.34150000       2.87810000      -1.30230000
C        1.29290000       3.56840000      -2.28520000
C        1.32830000       2.89850000       1.18330000
C        1.67880000       2.13560000       2.48030000
O        2.95620000       2.80020000       2.57120000
C        2.63380000       3.67260000       1.47060000
H       -0.79470000       1.54600000      -0.50310000
H        2.24460000       1.41040000      -0.08440000
H        1.26800000       4.17290000      -3.15830000
H        0.41600000       3.49770000       1.21610000
H        1.03260000       2.36930000       3.33590000
H        1.77620000       1.04850000       2.39030000
H        3.39330000       3.64870000       0.68070000
H        2.48730000       4.71080000       1.79520000
