19
Properties=species:S:1:pos:R:3 gdb_69093=T pbc="F F F"
C       -0.03480000       1.52310000      -0.03800000
C       -0.04110000       0.01870000       0.03900000
C       -1.30830000      -0.74140000      -0.34100000
C       -1.11470000      -2.17460000       0.20310000
C       -0.18790000      -2.02150000       1.43080000
C        0.63900000      -0.77470000       1.12630000
N        1.23950000      -0.64940000      -0.21790000
C        1.37110000      -0.16030000       2.20560000
N        1.92750000       0.32650000       3.09490000
H        0.91060000       1.92630000       0.33060000
H       -0.16320000       1.85110000      -1.07520000
H       -0.85250000       1.94660000       0.55440000
H       -2.16470000      -0.25380000       0.13950000
H       -1.49350000      -0.72100000      -1.42060000
H       -2.06170000      -2.65250000       0.46280000
H       -0.64660000      -2.81370000      -0.55220000
H       -0.76600000      -1.84520000       2.34440000
H        0.43560000      -2.90350000       1.60760000
H        1.13260000      -1.51910000      -0.73500000
