18
Properties=species:S:1:pos:R:3 gdb_44501=T pbc="F F F"
O        0.00850000      -0.08650000       0.09580000
C       -0.01840000       1.12660000       0.02950000
C       -1.30640000       1.94510000      -0.02000000
C       -1.07830000       3.45010000      -0.10130000
C        0.02940000       3.98200000      -1.07390000
C        0.09500000       5.25800000      -0.19560000
C        0.02230000       4.08520000       0.81590000
C        1.05470000       3.34360000      -0.08750000
N        1.10380000       1.90420000      -0.00870000
H       -1.88710000       1.58910000      -0.87870000
H       -1.89360000       1.68450000       0.86820000
H       -2.02140000       4.00480000      -0.13510000
H        0.03910000       3.91600000      -2.16320000
H        1.02700000       5.82950000      -0.22330000
H       -0.77810000       5.91290000      -0.23470000
H        0.02390000       4.13820000       1.90590000
H        2.06950000       3.74610000      -0.10560000
H        1.98940000       1.42350000       0.02080000
