19
Properties=species:S:1:pos:R:3 gdb_103578=T pbc="F F F"
C       -0.05480000       1.56730000       0.02400000
C       -0.01800000       0.02730000      -0.01170000
C       -1.45280000      -0.52900000       0.00090000
O       -2.08660000      -0.10710000       1.19850000
C        0.77380000      -0.52440000      -1.22110000
C        1.94690000      -1.32990000      -0.63510000
O        2.79310000      -1.91270000      -1.27190000
C        1.82560000      -1.24670000       0.83820000
C        0.75890000      -0.51520000       1.17590000
H        0.95840000       1.98010000       0.03650000
H       -0.57060000       1.95700000      -0.86040000
H       -0.58760000       1.92120000       0.90970000
H       -1.98830000      -0.15770000      -0.88780000
H       -1.41580000      -1.62760000      -0.06370000
H       -2.98360000      -0.45260000       1.20780000
H        0.17500000      -1.18070000      -1.86190000
H        1.16460000       0.27000000      -1.86360000
H        2.52690000      -1.72950000       1.50710000
H        0.43080000      -0.30030000       2.18670000
