16
Properties=species:S:1:pos:R:3 gdb_69628=T pbc="F F F"
O       -0.08250000       1.38700000       0.04930000
C       -0.00450000       0.01210000       0.01600000
C       -0.26700000      -0.80970000      -1.21630000
C       -1.15450000      -0.95980000       0.00270000
C       -0.49920000      -1.76950000       1.16560000
C        0.92520000      -2.22120000       0.89610000
C        0.67730000      -0.77580000       1.17740000
C       -1.24680000      -2.24640000       2.27700000
N       -1.87000000      -2.63220000       3.17420000
H        0.68960000       1.74930000      -0.40080000
H       -0.74770000      -0.23140000      -2.00000000
H        0.38440000      -1.59290000      -1.58840000
H       -2.21770000      -0.76600000      -0.02470000
H        1.36920000      -2.77430000       1.71790000
H        1.21560000      -2.58620000      -0.08160000
H        1.06450000      -0.26860000       2.05100000
