21
Properties=species:S:1:pos:R:3 gdb_52853=T pbc="F F F"
C       -0.21440000       1.36750000       0.21720000
C       -0.10580000      -0.07990000       0.10000000
C       -0.02710000      -1.27810000      -0.00410000
C        0.11240000      -2.73390000      -0.13710000
O        0.76260000      -3.06640000      -1.36280000
C        0.81370000      -3.33830000       1.10640000
C       -0.28900000      -3.40730000       2.17760000
C       -1.62760000      -3.55820000       1.38920000
C       -1.25610000      -3.44890000      -0.10500000
H        0.57780000       1.78060000       0.85120000
H       -0.14140000       1.85030000      -0.76360000
H       -1.17560000       1.65740000       0.65600000
H        1.50550000      -2.46350000      -1.47030000
H        1.15020000      -4.34010000       0.81750000
H        1.68960000      -2.76330000       1.41850000
H       -0.12230000      -4.22870000       2.87920000
H       -0.30110000      -2.48520000       2.76560000
H       -2.12340000      -4.50880000       1.60230000
H       -2.32780000      -2.76850000       1.67420000
H       -2.00540000      -2.93120000      -0.70680000
H       -1.09720000      -4.43760000      -0.54810000
