18
Properties=species:S:1:pos:R:3 gdb_45080=T pbc="F F F"
N       -0.06640000       1.26720000       0.17630000
C       -0.04900000       0.01730000      -0.02390000
O        1.13680000      -0.69090000      -0.04030000
C        1.30720000      -1.73800000      -0.97080000
C        1.25030000      -3.15420000      -0.47830000
C        0.11810000      -2.58800000      -1.31200000
C       -1.20790000      -2.16960000      -0.73610000
C       -1.44610000      -2.00260000       0.73390000
C       -1.29560000      -0.77110000      -0.14500000
H        0.89110000       1.61940000       0.23870000
H        2.02430000      -1.47170000      -1.74180000
H        1.91150000      -3.88070000      -0.93730000
H        1.08040000      -3.30370000       0.58150000
H        0.05970000      -2.93100000      -2.33960000
H       -2.06550000      -2.48520000      -1.31990000
H       -2.43800000      -2.21700000       1.11430000
H       -0.64400000      -2.21780000       1.43000000
H       -2.17220000      -0.16500000      -0.32960000
