20
Properties=species:S:1:pos:R:3 gdb_22843=T pbc="F F F"
O        0.01680000       1.32390000       0.70510000
N        0.06180000      -0.06990000       0.56350000
C       -0.99810000      -0.55490000       0.01280000
C       -0.98080000      -2.05800000      -0.12600000
C       -1.29090000      -2.60700000      -1.52670000
C       -2.76170000      -2.46980000      -1.93490000
C       -3.21410000      -1.05550000      -2.31860000
C       -3.07870000       0.04970000      -1.30360000
C       -2.14910000       0.26930000      -0.36360000
H        0.84100000       1.50180000       1.16960000
H        0.00660000      -2.39490000       0.20100000
H       -1.71250000      -2.47990000       0.57800000
H       -0.64380000      -2.12470000      -2.27100000
H       -1.02610000      -3.67060000      -1.53200000
H       -2.95720000      -3.12140000      -2.79490000
H       -3.39340000      -2.84240000      -1.11770000
H       -2.66850000      -0.74220000      -3.22340000
H       -4.26530000      -1.10230000      -2.62770000
H       -3.82660000       0.83380000      -1.41470000
H       -2.20740000       1.20480000       0.18300000
