20
Properties=species:S:1:pos:R:3 gdb_81173=T pbc="F F F"
C       -0.17770000       1.56620000      -0.22830000
C        0.05090000       0.06790000      -0.12370000
C        1.33480000      -0.62210000      -0.69180000
C        2.13950000      -0.05950000       0.51620000
C        0.79430000      -0.58910000       1.09600000
C        0.98660000      -1.84400000       0.21020000
N        0.39270000      -0.62500000       2.46950000
C        0.39460000       0.46190000       3.28860000
O        0.70920000       1.58530000       2.95800000
H       -0.45500000       1.83270000      -1.25470000
H       -0.99950000       1.87040000       0.42710000
H        0.69230000       2.15950000       0.05600000
H       -0.86840000      -0.46970000      -0.38840000
H        1.65150000      -0.65600000      -1.73260000
H        3.03290000      -0.62140000       0.80230000
H        2.31460000       1.01280000       0.56520000
H        0.08440000      -2.40640000      -0.04950000
H        1.81630000      -2.50390000       0.47810000
H        0.10350000      -1.50930000       2.85770000
H        0.07140000       0.20180000       4.31710000
