19
Properties=species:S:1:pos:R:3 gdb_61625=T pbc="F F F"
C       -0.59940000       1.19290000       0.49720000
C        0.12680000      -0.07720000       0.13430000
O        1.40150000       0.05020000      -0.50740000
C        1.35640000      -0.57450000       0.77970000
C        2.07890000       0.12370000       1.90850000
C        1.73130000      -0.49440000       3.27940000
O        2.02850000      -1.88930000       3.32260000
C        2.39000000       0.23190000       4.36800000
C        2.97560000       0.81550000       5.24080000
H        0.06220000       1.92800000       0.95960000
H       -1.02830000       1.64850000      -0.40150000
H       -1.42340000       0.97820000       1.18660000
H       -0.51120000      -0.83570000      -0.32560000
H        1.52300000      -1.65150000       0.75450000
H        3.16190000       0.03880000       1.75150000
H        1.84840000       1.19180000       1.92260000
H        0.64480000      -0.44160000       3.42200000
H        2.98480000      -1.97850000       3.40540000
H        3.47520000       1.33060000       6.02400000
