16
Properties=species:S:1:pos:R:3 gdb_123805=T pbc="F F F"
C       -0.39210000       1.05090000      -0.19520000
C        1.06700000       1.06600000       0.21900000
C        0.36450000      -0.22870000      -0.01040000
O        0.12240000      -0.99160000       1.16150000
C       -0.87060000      -1.87530000       1.12150000
C       -1.34040000      -2.70400000       2.09980000
C       -2.37900000      -3.39850000       1.43470000
N       -2.53260000      -3.03730000       0.18320000
O       -1.54670000      -2.04280000      -0.01910000
H       -1.12370000       1.30320000       0.56350000
H       -0.66180000       1.34110000      -1.20400000
H        1.81910000       1.37250000      -0.49860000
H        1.28560000       1.32400000       1.24870000
H        0.60780000      -0.83890000      -0.87330000
H       -0.99420000      -2.79300000       3.11380000
H       -3.03320000      -4.16290000       1.83160000
