15
Properties=species:S:1:pos:R:3 gdb_29069=T pbc="F F F"
O        0.09490000      -0.07050000       0.00250000
C        0.02280000       1.16210000       0.00950000
C       -1.23090000       1.85750000       0.02980000
C       -1.53480000       3.19670000       0.04050000
N       -0.78460000       4.31790000       0.03600000
C        0.52970000       4.31530000       0.01840000
C        1.48970000       3.28860000       0.00040000
C        1.32260000       1.91400000      -0.00410000
N        2.35860000       1.06830000      -0.02220000
H        3.31480000       1.37520000      -0.03330000
H        2.10820000       0.08580000      -0.02370000
H       -2.07650000       1.17490000       0.03770000
H       -2.60280000       3.41690000       0.05590000
H        0.96440000       5.31730000       0.01750000
H        2.52030000       3.63940000      -0.01160000
