19
Properties=species:S:1:pos:R:3 gdb_35683=T pbc="F F F"
C       -0.43540000      -0.94590000      -0.71330000
C       -0.27440000       0.15960000      -0.26620000
C       -0.04780000       1.47940000       0.28170000
C        0.18470000       1.64240000       1.81840000
C        1.25240000       2.72020000       1.50130000
C        1.33080000       2.18770000       0.05150000
C        2.56050000       1.37600000      -0.40610000
O        2.79340000       2.27160000      -1.51360000
C        1.63680000       3.06040000      -1.17440000
H       -0.58980000      -1.91870000      -1.11000000
H       -0.84590000       2.15840000      -0.04270000
H       -0.67950000       1.93230000       2.41860000
H        0.62580000       0.73830000       2.24360000
H        0.83820000       3.73310000       1.53530000
H        2.17730000       2.70340000       2.08290000
H        3.40440000       1.36340000       0.29640000
H        2.34870000       0.35400000      -0.74190000
H        0.87490000       3.03950000      -1.96600000
H        1.89610000       4.10550000      -0.95650000
