20
Properties=species:S:1:pos:R:3 gdb_114776=T pbc="F F F"
C        0.09470000       1.69960000       0.15000000
C       -0.01870000       0.17550000       0.06010000
C        0.84490000      -0.41250000      -1.05880000
O        2.24230000      -0.08590000      -0.90740000
C        2.94450000      -1.30130000      -0.70250000
C        2.46290000      -2.01720000       0.57770000
N        1.46520000      -2.83010000      -0.20710000
C        2.18190000      -2.40860000      -1.47120000
C        0.81950000      -1.92740000      -1.21110000
H        1.12970000       1.99610000       0.33940000
H       -0.22320000       2.17470000      -0.78490000
H       -0.53090000       2.09510000       0.95550000
H        0.24830000      -0.28050000       1.01850000
H       -1.05880000      -0.11380000      -0.14030000
H        0.51070000       0.02940000      -2.01090000
H        4.00830000      -1.12750000      -0.86020000
H        3.20410000      -2.70980000       0.98630000
H        2.06050000      -1.39300000       1.38020000
H        2.51690000      -3.09780000      -2.23610000
H       -0.03930000      -2.38860000      -1.68630000
