12
Properties=species:S:1:pos:R:3 gdb_43507=T pbc="F F F"
O       -0.06720000      -0.02430000       0.00330000
C       -0.02390000       1.17540000       0.00940000
N       -1.10030000       2.05180000       0.02880000
C       -0.65750000       3.38150000       0.03100000
C        0.70060000       3.47260000       0.01410000
C        1.23840000       2.11650000      -0.00030000
O        2.37500000       1.71270000      -0.01760000
C       -1.60210000       4.42930000       0.04930000
C       -2.42770000       5.30510000       0.06510000
H       -2.06780000       1.77400000       0.03980000
H        1.27140000       4.38660000       0.01210000
H       -3.14470000       6.09010000       0.07880000
