18
Properties=species:S:1:pos:R:3 gdb_24169=T pbc="F F F"
C       -0.09630000       1.54300000       0.24940000
C       -0.14530000       0.03320000       0.35480000
C       -1.31760000      -0.69650000      -0.18880000
N       -0.00210000      -0.80480000      -0.84010000
N        1.24990000       2.06660000       0.07410000
C        2.23860000       2.14870000       1.03220000
C        3.33860000       2.64890000       0.38630000
N        3.05910000       2.87690000      -0.94040000
C        1.80610000       2.51480000      -1.09030000
H       -0.69280000       1.87610000      -0.60660000
H       -0.53470000       1.99560000       1.14630000
H        0.36130000      -0.37210000       1.22840000
H       -1.66820000      -1.60360000       0.29430000
H       -2.09810000      -0.11400000      -0.67330000
H        0.03050000      -0.22690000      -1.67740000
H        2.06200000       1.85490000       2.05390000
H        4.31160000       2.86300000       0.80190000
H        1.23590000       2.56490000      -2.00710000
