18
Properties=species:S:1:pos:R:3 gdb_30268=T pbc="F F F"
O        0.00320000       1.39490000      -0.05210000
C        0.01700000      -0.01450000       0.03650000
C        0.59000000      -0.55600000       1.37930000
N       -0.18430000      -1.76550000       1.56620000
C       -0.10410000      -2.87300000       2.36740000
C       -1.22140000      -3.64010000       2.10740000
C       -2.00320000      -2.96600000       1.12190000
C       -1.33310000      -1.80490000       0.81310000
C       -1.42940000      -0.56360000      -0.01870000
H        0.90030000       1.70130000      -0.21600000
H        0.59500000      -0.45220000      -0.78980000
H        1.66380000      -0.76460000       1.33750000
H        0.40430000       0.17650000       2.17580000
H        0.72790000      -3.02980000       3.03490000
H       -1.44880000      -4.59140000       2.56470000
H       -2.93620000      -3.30320000       0.69730000
H       -2.10120000       0.18500000       0.42200000
H       -1.76230000      -0.73780000      -1.04500000
