19
Properties=species:S:1:pos:R:3 gdb_73540=T pbc="F F F"
C       -0.17000000       1.59380000      -0.13530000
C       -0.04300000       0.08020000      -0.04660000
C       -1.38130000      -0.61870000       0.21940000
O       -1.43370000      -0.74990000       1.66600000
C       -0.11840000      -0.84210000       2.23880000
C        0.78180000      -0.63120000       1.05750000
C        2.11540000      -0.13510000       0.45780000
C        1.18020000      -0.66960000      -0.68330000
O        0.89460000      -1.83010000       0.16510000
H        0.78980000       2.11470000      -0.14030000
H       -0.69340000       1.86910000      -1.05790000
H       -0.76210000       1.97850000       0.70190000
H       -2.24600000      -0.01280000      -0.06290000
H       -1.44880000      -1.60220000      -0.25150000
H        0.00130000      -0.06550000       3.00400000
H        0.03030000      -1.82630000       2.69870000
H        2.35720000       0.92640000       0.51450000
H        2.97520000      -0.77490000       0.65530000
H        1.42930000      -0.85610000      -1.72950000
