22
Properties=species:S:1:pos:R:3 gdb_117533=T pbc="F F F"
C        0.06220000       1.55230000       0.00820000
C        0.02250000       0.01820000       0.01520000
C        0.79060000      -0.53050000       1.22550000
C       -1.44150000      -0.51620000      -0.00990000
C       -2.27300000      -0.01120000      -1.20930000
C       -3.69960000      -0.55030000      -1.23980000
O       -4.36240000       0.09170000      -2.31750000
C       -1.44170000      -1.98550000       0.01440000
N       -1.44030000      -3.14190000       0.01650000
H        1.09650000       1.89850000       0.09530000
H       -0.35050000       1.98060000      -0.90810000
H       -0.49540000       1.96460000       0.85790000
H        0.51200000      -0.34610000      -0.89740000
H        0.79730000      -1.62340000       1.24250000
H        1.82900000      -0.18650000       1.20540000
H        0.34380000      -0.18000000       2.16380000
H       -1.93290000      -0.18600000       0.91710000
H       -2.32830000       1.07940000      -1.16820000
H       -1.77120000      -0.27610000      -2.14650000
H       -3.68880000      -1.64220000      -1.36630000
H       -4.19820000      -0.33590000      -0.27930000
H       -5.22800000      -0.31350000      -2.42230000
