19
Properties=species:S:1:pos:R:3 gdb_36087=T pbc="F F F"
C       -0.01430000      -1.21600000      -0.19920000
C        0.00630000      -0.03130000      -0.00040000
C        0.02770000       1.41080000       0.21990000
C        1.39440000       2.03060000       0.01130000
C        2.23840000       1.92030000      -1.28480000
C        3.04050000       3.04810000      -0.56170000
C        1.66070000       3.55980000      -0.04020000
C        3.52360000       2.27860000       0.67300000
O        2.30860000       1.58430000       1.03260000
H       -0.03020000      -2.26480000      -0.36260000
H       -0.68390000       1.89800000      -0.45780000
H       -0.30140000       1.63830000       1.24170000
H        2.73170000       0.96450000      -1.47350000
H        1.71460000       2.27600000      -2.17370000
H        3.75340000       3.69130000      -1.07520000
H        1.08320000       4.07650000      -0.80900000
H        1.63020000       4.10290000       0.90790000
H        4.32020000       1.55740000       0.45530000
H        3.84390000       2.92690000       1.49720000
