17
Properties=species:S:1:pos:R:3 gdb_1345=T pbc="F F F"
C       -0.09320000       1.54200000      -0.00820000
C        0.00990000       0.01390000      -0.01190000
O       -1.29180000      -0.56860000      -0.03000000
C        0.90910000      -0.47640000      -1.19170000
C        2.23020000      -0.78500000      -0.53520000
C        2.13400000      -0.79620000       0.79370000
C        0.73410000      -0.49790000       1.26300000
H        0.90020000       1.99760000       0.05830000
H       -0.56340000       1.90420000      -0.93110000
H       -0.69240000       1.88230000       0.84160000
H       -1.77710000      -0.18630000      -0.76890000
H        0.46580000      -1.37720000      -1.63710000
H        0.98890000       0.26920000      -1.99290000
H        3.13050000      -0.99950000      -1.10080000
H        2.94430000      -1.02070000       1.47870000
H        0.69510000       0.23250000       2.07960000
H        0.22930000      -1.40240000       1.62540000
