21
Properties=species:S:1:pos:R:3 gdb_73427=T pbc="F F F"
C       -0.02720000       1.45890000       0.08840000
C       -0.01550000      -0.05680000       0.00960000
C       -1.25370000      -0.63410000      -0.65440000
C       -1.25800000      -2.17740000      -0.74260000
C       -0.01500000      -2.79670000      -0.14310000
C        1.36530000      -2.20320000      -0.26140000
C        0.67440000      -2.27880000       1.09300000
C        0.67040000      -0.72900000       1.17770000
C        1.36150000      -0.65330000      -0.17720000
H        0.87780000       1.84310000       0.57020000
H       -0.08850000       1.90270000      -0.91220000
H       -0.89000000       1.81450000       0.66380000
H       -2.13410000      -0.28470000      -0.10100000
H       -1.34000000      -0.19800000      -1.65720000
H       -2.13750000      -2.58340000      -0.22990000
H       -1.34300000      -2.49660000      -1.78760000
H        0.00190000      -3.88370000      -0.19520000
H        2.21530000      -2.77120000      -0.61830000
H        0.91160000      -2.91380000       1.93730000
H        0.91410000      -0.18900000       2.08470000
H        2.21290000      -0.04690000      -0.46160000
