23
Properties=species:S:1:pos:R:3 gdb_119150=T pbc="F F F"
C       -0.11510000       1.37750000      -0.01210000
O       -0.16930000      -0.02950000      -0.08400000
C        0.72840000      -0.57810000      -1.04270000
C        0.64420000      -2.08540000      -0.99410000
C       -0.38590000      -2.75330000      -1.86950000
C        1.07350000      -2.82480000      -2.24000000
C        0.91660000      -2.73680000       0.36230000
C        2.25780000      -2.32250000       0.97910000
O       -0.15290000      -2.51180000       1.27170000
H        0.88780000       1.73260000       0.27040000
H       -0.38580000       1.83880000      -0.97400000
H       -0.83250000       1.69580000       0.74750000
H        0.46860000      -0.21440000      -2.05010000
H        1.75170000      -0.23060000      -0.82650000
H       -0.86550000      -3.64480000      -1.48130000
H       -1.03520000      -2.12270000      -2.46750000
H        1.41800000      -2.24570000      -3.09100000
H        1.59350000      -3.76820000      -2.11140000
H        0.93520000      -3.82300000       0.20330000
H        2.26930000      -1.25340000       1.21460000
H        2.41390000      -2.86850000       1.91300000
H        3.09340000      -2.53760000       0.30390000
H       -0.37700000      -1.57480000       1.19580000
