15
Properties=species:S:1:pos:R:3 gdb_68696=T pbc="F F F"
C       -0.00050000       1.53230000       0.04600000
C       -0.05210000       0.03670000       0.05230000
C       -1.31010000      -0.84410000      -0.07920000
C       -0.68490000      -1.77870000       0.99060000
O       -1.09780000      -2.69890000       1.62620000
C        0.58090000      -0.93400000       1.07110000
N        1.11800000      -0.73140000      -0.29310000
C        1.42130000      -0.70920000       2.20280000
N        2.06590000      -0.52470000       3.14510000
H        0.99070000       1.87980000       0.34520000
H       -0.20670000       1.91220000      -0.96060000
H       -0.74750000       1.95100000       0.72640000
H       -2.22860000      -0.39960000       0.31610000
H       -1.50790000      -1.24970000      -1.07560000
H        0.92950000      -1.53020000      -0.89740000
