18
Properties=species:S:1:pos:R:3 gdb_55182=T pbc="F F F"
N        0.19480000       1.22350000      -0.29270000
C        0.00420000       0.00400000       0.29440000
O        0.86500000      -0.56240000       0.93700000
C       -1.41420000      -0.54770000       0.14660000
O       -1.45460000      -1.98060000       0.09350000
C       -2.35050000      -2.05510000       1.22450000
C       -1.61420000      -2.23990000       2.57280000
C       -1.63380000      -0.69210000       2.78170000
C       -2.32800000      -0.51160000       1.40440000
H        1.11710000       1.62680000      -0.24960000
H       -0.45520000       1.59660000      -0.96270000
H       -1.90260000      -0.11510000      -0.73970000
H       -3.23480000      -2.66020000       1.00940000
H       -2.17510000      -2.80540000       3.32140000
H       -0.62260000      -2.67660000       2.44890000
H       -2.28550000      -0.38040000       3.60150000
H       -0.66140000      -0.21420000       2.90130000
H       -3.19950000       0.13890000       1.34380000
