15
Properties=species:S:1:pos:R:3 gdb_4967=T pbc="F F F"
C        0.02850000       1.50950000       0.04870000
C        0.02340000       0.00360000       0.02910000
C       -0.05140000      -0.71930000      -1.16130000
N       -0.06080000      -2.04940000      -1.25890000
C        0.00780000      -2.73040000      -0.11030000
C        0.08610000      -2.13600000       1.14110000
C        0.09410000      -0.74480000       1.21300000
O        0.17080000      -0.17100000       2.44020000
H        0.94480000       1.91550000       0.49820000
H       -0.03420000       1.90780000      -0.96680000
H       -0.82240000       1.92000000       0.60890000
H       -0.10760000      -0.17080000      -2.10090000
H       -0.00000000      -3.81470000      -0.19320000
H        0.14030000      -2.72300000       2.05020000
H        0.16790000       0.78750000       2.34810000
