17
Properties=species:S:1:pos:R:3 gdb_69943=T pbc="F F F"
O        0.01330000       1.41350000       0.07220000
C        0.03980000       0.02250000       0.06770000
C       -0.38240000      -0.74500000      -1.16700000
C       -1.27510000      -0.77810000       0.05440000
C       -1.09630000      -1.86080000       1.08670000
O       -0.84180000      -3.28020000       0.75190000
C        0.38000000      -3.28650000       1.55290000
C        0.35010000      -1.77860000       1.48510000
C        1.00210000      -0.76500000       0.91770000
H        0.63630000       1.73070000      -0.59020000
H       -0.76290000      -0.15280000      -1.99340000
H        0.15770000      -1.64310000      -1.44620000
H       -2.21040000      -0.23570000      -0.00100000
H       -1.85380000      -1.81460000       1.87870000
H        0.20370000      -3.73060000       2.54160000
H        1.20580000      -3.80350000       1.05420000
H        2.07650000      -0.63350000       0.84950000
