23
Properties=species:S:1:pos:R:3 gdb_41571=T pbc="F F F"
C       -0.03260000       1.58660000       0.23160000
C        1.52620000       1.61690000       0.21580000
C        1.55760000       0.08410000      -0.06460000
C       -0.01020000       0.05350000      -0.04840000
C       -0.36690000      -0.55660000      -1.42830000
C       -0.04110000       0.40800000      -2.59090000
C        1.52220000       0.43850000      -2.60710000
C        1.90940000      -0.51220000      -1.45180000
C        0.79030000      -1.57940000      -1.56740000
H       -0.46860000       1.84210000       1.20050000
H       -0.52330000       2.20700000      -0.52150000
H        1.97700000       2.25580000      -0.54670000
H        1.97150000       1.88940000       1.17580000
H        2.05000000      -0.49250000       0.72320000
H       -0.46350000      -0.54130000       0.74920000
H       -1.37740000      -0.96880000      -1.47940000
H       -0.43460000       0.00400000      -3.52880000
H       -0.48550000       1.39810000      -2.46690000
H        1.91160000       0.04970000      -3.55310000
H        1.93010000       1.44520000      -2.49200000
H        2.93380000      -0.88460000      -1.52400000
H        0.81310000      -2.31760000      -0.75930000
H        0.79070000      -2.10690000      -2.52710000
