18
Properties=species:S:1:pos:R:3 gdb_93174=T pbc="F F F"
C       -0.08380000       1.51060000       0.08660000
C       -0.05900000       0.00200000      -0.09720000
C        0.82110000      -0.47090000      -1.24640000
C        0.76600000      -1.99610000      -1.33340000
C        1.06070000      -2.66410000      -0.00030000
O        1.45520000      -3.79810000       0.07860000
C        0.82800000      -1.83470000       1.26930000
N        1.07720000      -2.35590000       2.39570000
O        0.40710000      -0.54400000       1.15690000
H        0.92880000       1.89600000       0.23870000
H       -0.51270000       1.99210000      -0.79700000
H       -0.68860000       1.77870000       0.95640000
H       -1.08490000      -0.36320000      -0.25770000
H        0.48020000      -0.01720000      -2.18260000
H        1.84860000      -0.12740000      -1.07410000
H       -0.24630000      -2.31150000      -1.62520000
H        1.44840000      -2.41240000      -2.07870000
H        0.88770000      -1.67870000       3.13900000
