16
Properties=species:S:1:pos:R:3 gdb_87551=T pbc="F F F"
O       -0.11950000       1.44380000      -0.04360000
C       -0.01920000       0.05280000      -0.06340000
C       -0.39180000      -0.72810000       1.16960000
C       -1.31950000      -0.68080000      -0.02620000
C       -2.73680000      -0.14360000      -0.11180000
N       -3.01500000       0.00350000      -1.54620000
C       -3.18350000      -1.34650000      -0.90100000
C       -1.77710000      -1.91740000      -0.79140000
O       -1.26800000      -2.97260000      -1.03750000
H        0.64530000       1.78980000       0.42900000
H        0.75680000      -0.35800000      -0.70930000
H        0.10650000      -1.67190000       1.36740000
H       -0.68900000      -0.15610000       2.04260000
H       -3.28590000       0.39300000       0.64970000
H       -3.95990000       0.37900000      -1.64390000
H       -4.13330000      -1.86390000      -0.93030000
