14
Properties=species:S:1:pos:R:3 gdb_42515=T pbc="F F F"
O        0.04420000      -0.02540000       0.40140000
C       -0.01560000       1.15060000       0.24590000
C       -1.16270000       2.21810000       0.11030000
O       -0.14890000       3.23900000      -0.01150000
C        0.92830000       2.29730000       0.10960000
C        2.21170000       2.58180000       0.83390000
C        2.21310000       2.39320000      -0.66220000
C       -2.02290000       2.10620000      -1.05880000
N       -2.69890000       1.99590000      -1.98960000
H       -1.76130000       2.33620000       1.02080000
H        2.32040000       3.59120000       1.21510000
H        2.61140000       1.79660000       1.46640000
H        2.61210000       1.47520000      -1.07970000
H        2.31930000       3.27590000      -1.28300000
