15
Properties=species:S:1:pos:R:3 gdb_31461=T pbc="F F F"
C        0.24990000       1.28500000       0.22960000
N       -0.19590000      -0.03980000      -0.16530000
C        0.47530000      -0.74410000      -1.13490000
N        0.48350000      -2.05150000      -1.24860000
C        1.21920000      -2.30290000      -2.39750000
C        1.66010000      -1.13670000      -2.96630000
N        1.18060000      -0.13720000      -2.14360000
C        1.46400000      -3.61690000      -2.87570000
N        1.67570000      -4.68030000      -3.28200000
H        1.30710000       1.32340000       0.53240000
H        0.09640000       2.00200000      -0.58590000
H       -0.36210000       1.62460000       1.06680000
H       -0.48850000      -0.64680000       0.58610000
H        2.25590000      -0.93390000      -3.83900000
H        1.29920000       0.85090000      -2.28740000
