17
Properties=species:S:1:pos:R:3 gdb_127740=T pbc="F F F"
C       -0.14930000       1.40170000       0.10240000
N       -0.06660000      -0.04550000       0.13500000
N       -0.08930000      -0.74950000      -0.99810000
N        0.00500000      -2.01850000      -0.68260000
C        0.09280000      -2.12880000       0.66840000
N        0.27380000      -3.36950000       1.27860000
C        0.05260000      -0.86210000       1.22690000
C        0.08980000      -0.36970000       2.63220000
O       -1.08960000       0.33860000       3.02130000
H        0.82800000       1.85180000       0.30600000
H       -0.47560000       1.68820000      -0.89700000
H       -0.86260000       1.74160000       0.85520000
H        0.11070000      -4.11550000       0.61360000
H       -0.29150000      -3.51080000       2.10520000
H        0.28790000      -1.22150000       3.29820000
H        0.90600000       0.34580000       2.78330000
H       -1.84320000      -0.23300000       2.83800000
