19
Properties=species:S:1:pos:R:3 gdb_28325=T pbc="F F F"
N       -0.00960000       1.40360000       0.15950000
C        0.00950000      -0.00180000       0.04020000
C       -1.08630000      -0.84720000      -0.00050000
N       -0.59480000      -2.13350000      -0.07170000
C       -1.17270000      -3.46140000      -0.00400000
C        0.02820000      -4.35010000      -0.41050000
C        1.29210000      -3.52500000      -0.03390000
C        0.76930000      -2.12040000      -0.05460000
C        1.18890000      -0.80890000       0.01150000
H        0.75150000       1.83590000      -0.34940000
H       -0.88000000       1.80440000      -0.16720000
H       -2.14330000      -0.63690000      -0.01280000
H       -1.52390000      -3.68690000       1.01280000
H       -2.02540000      -3.56510000      -0.68280000
H       -0.00230000      -5.32870000       0.07350000
H        0.00630000      -4.51260000      -1.49200000
H        1.65940000      -3.80180000       0.96360000
H        2.11640000      -3.69690000      -0.73260000
H        2.20790000      -0.45310000       0.03490000
