19
Properties=species:S:1:pos:R:3 gdb_104289=T pbc="F F F"
C       -0.03560000       1.41470000      -0.04450000
O        0.35120000       0.05610000      -0.11580000
C        0.79310000      -0.52080000       1.09120000
C        2.09840000       0.07460000       1.60410000
C       -0.28180000      -0.76870000       2.18700000
O        0.00820000      -2.18240000       2.18760000
C        0.79150000      -2.07580000       0.99710000
C        0.10850000      -2.61800000      -0.24720000
O       -0.99800000      -3.08410000      -0.26670000
H        0.81710000       2.08310000       0.13400000
H       -0.47880000       1.66440000      -1.01070000
H       -0.78640000       1.58550000       0.74050000
H        1.97090000       1.11750000       1.91020000
H        2.44970000      -0.48560000       2.47510000
H        2.86690000       0.03270000       0.82600000
H       -0.11170000      -0.31470000       3.16890000
H       -1.30440000      -0.56480000       1.84770000
H        1.77630000      -2.55570000       1.09590000
H        0.74260000      -2.55670000      -1.16040000
