16
Properties=species:S:1:pos:R:3 gdb_130434=T pbc="F F F"
N        0.11460000       1.51210000       0.15930000
H        0.58520000       0.67500000      -0.17310000
H        1.48920000       2.44590000       1.32700000
H       -0.38120000       1.90490000      -0.63440000
C       -0.83850000       1.15210000       1.23440000
C       -0.06580000       0.82090000       2.47230000
N       -0.44690000      -0.11110000       3.34560000
N        0.50380000      -0.06860000       4.31210000
C        1.47460000       0.84280000       4.05570000
O        2.51260000       1.00990000       4.90630000
C        1.13780000       1.45020000       2.86500000
O        1.84480000       2.43370000       2.23750000
H       -1.46950000       2.03410000       1.40510000
H       -1.51020000       0.32050000       0.98150000
H        0.45260000      -0.69230000       5.09830000
H        3.08910000       1.68160000       4.52330000
