16
Properties=species:S:1:pos:R:3 gdb_34613=T pbc="F F F"
N        0.09720000      -1.04610000       0.33160000
C        0.02330000       0.10190000       0.19510000
C       -0.02940000       1.50930000       0.00850000
C       -1.13550000       2.26660000       0.06090000
C       -0.86580000       3.72480000      -0.20670000
C        0.66870000       3.79740000      -0.31060000
C        1.47190000       3.94980000       1.00190000
O        2.00660000       2.61010000       0.89600000
C        1.20740000       2.34370000      -0.27440000
H       -2.12900000       1.88140000       0.26150000
H       -1.36100000       4.04670000      -1.13190000
H       -1.26670000       4.36460000       0.58980000
H        1.02110000       4.42480000      -1.12820000
H        2.26970000       4.70020000       0.99300000
H        0.86390000       4.08260000       1.90630000
H        1.81830000       1.95140000      -1.09330000
