21
Properties=species:S:1:pos:R:3 gdb_79140=T pbc="F F F"
C       -0.09680000       1.59530000      -0.06420000
C        0.04110000       0.07590000      -0.06520000
C        0.66640000      -0.60420000      -1.28410000
C        2.17680000      -0.63020000      -1.13690000
O        2.80850000       0.30610000      -0.28630000
C        2.41020000      -0.04340000       1.05570000
C        2.50380000       1.16710000       1.96980000
C        1.05660000      -0.73100000       0.84300000
C        1.36570000      -1.62980000      -0.38780000
H        0.84370000       2.08550000      -0.32200000
H       -0.84280000       1.89240000      -0.81110000
H       -0.44070000       1.97510000       0.90440000
H       -0.94520000      -0.37010000       0.10770000
H        0.18640000      -0.75990000      -2.24490000
H        2.77480000      -0.91060000      -1.99610000
H        3.11020000      -0.80950000       1.43510000
H        1.81630000       1.96340000       1.68560000
H        2.28280000       0.86800000       2.99970000
H        3.52120000       1.56890000       1.94750000
H        0.64120000      -1.19140000       1.73960000
H        1.43240000      -2.70830000      -0.43870000
