16
Properties=species:S:1:pos:R:3 gdb_42448=T pbc="F F F"
O        0.40000000       0.48340000      -1.05630000
C        0.12590000       1.26360000      -0.17550000
O        0.96860000       1.63100000       0.81280000
C        2.29700000       1.06670000       0.75260000
C        3.20610000       1.90070000      -0.02010000
C        3.96820000       2.58580000      -0.64590000
C       -1.19530000       1.93480000      -0.02910000
C       -1.79580000       2.48240000      -1.28600000
N       -2.34570000       1.28140000      -0.67090000
H        2.62210000       0.99920000       1.79390000
H        2.23840000       0.06290000       0.32380000
H        4.64130000       3.18670000      -1.20630000
H       -1.38440000       2.41910000       0.92180000
H       -2.41760000       3.37000000      -1.21800000
H       -1.20970000       2.38230000      -2.19470000
H       -1.99020000       0.46630000      -1.17050000
