21
Properties=species:S:1:pos:R:3 gdb_117730=T pbc="F F F"
C       -0.02260000       1.66950000       0.04150000
C       -0.14680000       0.14250000       0.04650000
C        0.69310000      -0.48970000       1.16440000
C        0.71430000      -2.03880000       1.20280000
C       -0.69770000      -2.67570000       1.19410000
C        1.50230000      -2.62600000       0.01390000
O        2.07710000      -1.98240000      -0.82130000
C        1.44170000      -2.49890000       2.38970000
C        2.06290000      -2.89390000       3.34090000
H        1.01470000       1.97980000      -0.12400000
H       -0.63410000       2.11360000      -0.74990000
H       -0.34880000       2.09890000       0.99560000
H       -1.20190000      -0.12990000       0.16810000
H        0.17570000      -0.25280000      -0.92150000
H        1.72930000      -0.14830000       1.07110000
H        0.33300000      -0.13660000       2.13770000
H       -1.23840000      -2.41780000       0.28020000
H       -0.62920000      -3.76510000       1.26130000
H       -1.27280000      -2.32110000       2.05340000
H        1.50650000      -3.73870000      -0.00260000
H        2.60430000      -3.23130000       4.19020000
