14
Properties=species:S:1:pos:R:3 gdb_44194=T pbc="F F F"
O       -0.53780000       0.28840000       0.61690000
C       -0.16390000       1.29780000       0.12160000
O       -0.93570000       2.26890000      -0.50130000
C        0.23300000       3.07170000      -0.81410000
C        0.49260000       4.13240000       0.30280000
C        1.43590000       3.09910000       1.02180000
C        1.14650000       2.05160000      -0.09710000
C        1.14570000       5.34990000      -0.14340000
N        1.68160000       6.30310000      -0.51860000
H        0.27180000       3.36170000      -1.86130000
H       -0.42200000       4.37880000       0.84660000
H        2.47580000       3.42450000       1.02310000
H        1.14700000       2.81680000       2.03440000
H        1.97740000       1.51040000      -0.54210000
