16
Properties=species:S:1:pos:R:3 gdb_64840=T pbc="F F F"
C       -0.01450000       1.67440000      -0.04960000
C        0.02710000       0.14530000      -0.08590000
N        0.84850000      -0.40720000      -1.14270000
C        1.81690000      -1.29410000      -0.70280000
O        2.60400000      -1.90150000      -1.39220000
C        1.65830000      -1.30500000       0.78450000
C        0.66890000      -0.48280000       1.13700000
C       -1.39140000      -0.45600000      -0.20600000
O       -2.40980000       0.16450000      -0.06960000
H        0.99380000       2.07730000       0.06740000
H       -0.45180000       2.06690000      -0.97200000
H       -0.64030000       2.01280000       0.77910000
H        0.71780000      -0.20640000      -2.12080000
H        2.29940000      -1.89400000       1.42460000
H        0.30880000      -0.26080000       2.13330000
H       -1.37540000      -1.54200000      -0.44380000
