20
Properties=species:S:1:pos:R:3 gdb_10626=T pbc="F F F"
C       -0.35320000       1.53630000       0.13550000
C        0.16750000       0.11100000      -0.07750000
C        0.80680000      -0.48440000       1.17600000
C       -0.09650000      -1.10670000       2.23840000
C        0.80400000      -1.99520000       1.42830000
C        0.26070000      -2.99950000       0.43590000
C        1.97020000       0.22440000       1.64510000
C        2.94770000       0.81990000       2.01830000
H        0.45510000       2.20440000       0.44610000
H       -0.78910000       1.93350000      -0.78630000
H       -1.12430000       1.56110000       0.91270000
H       -0.65650000      -0.53240000      -0.40070000
H        0.90510000       0.10570000      -0.88910000
H        0.13740000      -0.92440000       3.28050000
H       -1.15830000      -1.12440000       2.00990000
H        1.69310000      -2.33790000       1.94980000
H       -0.67200000      -2.66680000      -0.02660000
H        0.98030000      -3.20140000      -0.36500000
H        0.05110000      -3.94920000       0.94060000
H        3.80880000       1.34280000       2.35310000
