12
Properties=species:S:1:pos:R:3 gdb_43430=T pbc="F F F"
N       -0.09690000       1.31190000       0.01100000
C       -0.00290000       0.04380000       0.00330000
N        1.11800000      -0.78740000      -0.00700000
C        0.77810000      -2.13730000      -0.01300000
O        1.53210000      -3.07310000      -0.02200000
C       -0.73510000      -2.13860000      -0.00550000
C       -1.16780000      -0.86610000       0.00390000
C       -1.49520000      -3.33320000      -0.00850000
N       -2.11150000      -4.31270000      -0.01110000
H        0.81780000       1.76730000       0.00910000
H        2.07580000      -0.47520000      -0.00990000
H       -2.18330000      -0.49940000       0.01100000
