15
Properties=species:S:1:pos:R:3 gdb_37307=T pbc="F F F"
O        0.01770000       1.46970000      -0.13950000
C        1.26630000       0.80860000       0.00540000
C        0.00840000       0.04140000      -0.02640000
C       -0.05510000      -0.71460000      -1.39260000
N       -0.81990000       0.16080000      -2.30790000
C        0.04850000       0.95960000      -2.78110000
N        1.44260000       0.62750000      -2.63730000
C        2.04270000       0.49540000      -1.26120000
C        1.39780000      -0.66200000      -1.92940000
H        1.82910000       1.04720000       0.90530000
H       -0.50520000      -0.34780000       0.84790000
H       -0.49560000      -1.70630000      -1.29720000
H       -0.19590000       1.82830000      -3.38300000
H        3.11620000       0.65200000      -1.25080000
H        1.91370000      -1.51120000      -2.36720000
