18
Properties=species:S:1:pos:R:3 gdb_115252=T pbc="F F F"
C        0.04450000       1.53470000       0.00350000
C       -0.01780000       0.00660000       0.02780000
C       -1.45050000      -0.53900000       0.00220000
C       -1.53310000      -2.09010000      -0.00660000
O       -2.38560000      -2.41350000       1.11430000
C       -2.65590000      -1.22170000       1.71840000
N       -2.20460000      -0.14690000       1.20650000
C       -3.44790000      -1.30430000       2.90000000
C       -4.11680000      -1.38360000       3.89440000
H        1.07960000       1.88650000       0.04480000
H       -0.40730000       1.93290000      -0.91200000
H       -0.49860000       1.95470000       0.85360000
H        0.52190000      -0.40760000      -0.83410000
H        0.48220000      -0.37810000       0.92580000
H       -1.96750000      -0.11510000      -0.86920000
H       -1.98660000      -2.50450000      -0.91010000
H       -0.56040000      -2.56720000       0.15620000
H       -4.70790000      -1.44480000       4.77520000
