20
Properties=species:S:1:pos:R:3 gdb_50758=T pbc="F F F"
O       -0.10390000       0.04270000       0.93290000
C       -0.03270000       1.21940000       0.66070000
N        0.99360000       1.81510000      -0.04310000
C        1.00930000       3.26810000      -0.17520000
C        1.23330000       3.80430000      -1.59200000
C        2.68530000       3.69170000      -2.06240000
C        3.14020000       2.26610000      -2.39410000
C        3.02980000       1.21700000      -1.31810000
C        2.09900000       1.01350000      -0.38150000
H       -0.80710000       1.95360000       0.95310000
H        0.04600000       3.62440000       0.20210000
H        1.78770000       3.67940000       0.48380000
H        0.55700000       3.29600000      -2.29090000
H        0.94290000       4.86160000      -1.58360000
H        2.82260000       4.30850000      -2.95780000
H        3.34060000       4.11560000      -1.28980000
H        2.56790000       1.91610000      -3.26830000
H        4.18210000       2.30460000      -2.73210000
H        3.78800000       0.43950000      -1.36470000
H        2.12490000       0.11020000       0.21740000
