18
Properties=species:S:1:pos:R:3 gdb_124597=T pbc="F F F"
C       -0.05470000       1.53680000       0.02100000
C        0.04970000       0.00840000       0.00810000
C        0.70000000      -0.52920000      -1.27050000
N        0.75260000      -0.47930000       1.19890000
C        2.03840000      -0.25570000       1.59550000
N        2.35560000      -0.83220000       2.70340000
O        1.16050000      -1.51400000       3.09260000
C        0.17770000      -1.29550000       2.16680000
N       -1.01270000      -1.72760000       2.15990000
H        0.93240000       2.00650000      -0.05620000
H       -0.65150000       1.87770000      -0.82970000
H       -0.53250000       1.88750000       0.93940000
H       -0.95080000      -0.42090000       0.11020000
H        1.71630000      -0.13940000      -1.39760000
H        0.74890000      -1.62100000      -1.25400000
H        0.11630000      -0.22380000      -2.14360000
H        2.73810000       0.34920000       1.03870000
H       -1.19850000      -2.30540000       2.97490000
