14
Properties=species:S:1:pos:R:3 gdb_12583=T pbc="F F F"
C       -0.02480000       1.52360000       0.01550000
C        0.00420000       0.03190000      -0.02860000
C       -0.05000000      -0.79260000      -1.09810000
N        0.06600000      -2.14230000      -0.76440000
C        0.10330000      -2.27740000       0.62450000
N        0.11600000      -3.31550000       1.35100000
C        0.12150000      -0.82630000       1.15960000
O        0.21720000      -0.50980000       2.32250000
H        0.89390000       1.92290000       0.45950000
H       -0.13640000       1.95290000      -0.98410000
H       -0.85250000       1.88080000       0.63790000
H       -0.14330000      -0.52140000      -2.14230000
H       -0.20000000      -2.88780000      -1.38570000
H        0.09630000      -4.17340000       0.79260000
