16
Properties=species:S:1:pos:R:3 gdb_125398=T pbc="F F F"
C        0.06110000       1.47560000       0.06250000
C       -0.02730000      -0.02010000       0.02430000
C       -0.05150000      -0.71660000      -1.12790000
O       -0.11810000      -2.05450000      -1.23570000
N       -0.25300000      -2.83450000      -0.09300000
C       -0.18540000      -2.23150000       1.05300000
N       -0.23270000      -3.04130000       2.17410000
C       -0.03040000      -0.77150000       1.26320000
N        0.09520000      -0.18890000       2.40430000
H        0.95590000       1.79160000       0.60800000
H        0.08750000       1.90070000      -0.94430000
H       -0.79210000       1.89880000       0.60290000
H       -0.00890000      -0.26510000      -2.11320000
H       -0.45110000      -4.00410000       1.95160000
H       -0.80790000      -2.68040000       2.92360000
H        0.14900000      -0.86630000       3.16510000
