16
Properties=species:S:1:pos:R:3 gdb_29874=T pbc="F F F"
C       -0.02840000       1.48640000       0.06080000
N       -0.00610000       0.02720000       0.02780000
C       -0.03470000      -0.66540000      -1.16490000
C       -0.01500000      -2.01220000      -1.22850000
C        0.03890000      -2.84250000      -0.01920000
O        0.05800000      -4.06980000      -0.04240000
C        0.06700000      -2.05440000       1.20700000
C        0.04450000      -0.69600000       1.19230000
O        0.06820000       0.10040000       2.28860000
H        0.86860000       1.88090000       0.54500000
H       -0.06880000       1.85060000      -0.96580000
H       -0.90300000       1.85240000       0.60470000
H       -0.07440000      -0.03640000      -2.04600000
H       -0.03910000      -2.51050000      -2.18960000
H        0.10710000      -2.58320000       2.15330000
H        0.10400000      -0.46210000       3.06980000
