20
Properties=species:S:1:pos:R:3 gdb_57194=T pbc="F F F"
C        0.09660000       1.60240000       0.10980000
C       -0.01560000       0.06930000       0.10090000
C        0.69080000      -0.50050000       1.33470000
O       -1.37610000      -0.35200000       0.20760000
C        0.58230000      -0.53380000      -1.20800000
N        0.81990000      -1.98670000      -1.19340000
H        0.40150000      -1.85060000      -3.01840000
H        1.64960000      -2.21980000      -0.66040000
H        0.03010000      -2.44430000      -0.74290000
C       -0.31770000      -0.25220000      -2.43860000
O       -1.08340000       0.67660000      -2.53150000
O       -0.16710000      -1.14990000      -3.41300000
H        1.14570000       1.91810000       0.11030000
H       -0.39420000       2.03540000      -0.76200000
H       -0.37550000       1.99210000       1.01630000
H        0.29130000      -0.02350000       2.23310000
H        0.52650000      -1.57650000       1.42990000
H        1.76840000      -0.31040000       1.29550000
H       -1.85930000       0.10890000      -0.49120000
H        1.54490000      -0.04930000      -1.41790000
