15
Properties=species:S:1:pos:R:3 gdb_127596=T pbc="F F F"
C       -0.04410000       1.40930000       0.00340000
N       -0.00480000      -0.03850000       0.02410000
N       -0.03250000      -0.74030000      -1.10270000
C        0.01870000      -2.02520000      -0.74270000
C        0.07870000      -2.16990000       0.65860000
N        0.20930000      -3.33210000       1.40000000
C        0.05920000      -0.85600000       1.13250000
C        0.08570000      -0.37940000       2.45500000
N        0.10180000      -0.00780000       3.55470000
H        0.85600000       1.82740000       0.46360000
H       -0.09760000       1.71150000      -1.04140000
H       -0.92150000       1.78070000       0.54110000
H        0.01340000      -2.79970000      -1.49470000
H       -0.20290000      -4.14960000       0.97460000
H       -0.05830000      -3.24690000       2.37070000
