14
Properties=species:S:1:pos:R:3 gdb_132393=T pbc="F F F"
O        0.09660000       1.34700000      -0.07650000
C        0.08160000      -0.01280000      -0.02840000
C        0.00930000      -0.69030000      -1.24460000
C       -0.00670000      -2.07600000      -1.21150000
F       -0.07580000      -2.73700000      -2.37120000
C        0.04530000      -2.81150000      -0.03770000
C        0.11720000      -2.11010000       1.16500000
O        0.16750000      -2.84520000       2.30900000
C        0.13580000      -0.71370000       1.17840000
H        0.14760000       1.69670000       0.81900000
H       -0.03270000      -0.15080000      -2.18090000
H        0.03070000      -3.89260000      -0.05180000
H        0.21510000      -2.25280000       3.06620000
H        0.19200000      -0.17580000       2.12190000
