18
Properties=species:S:1:pos:R:3 gdb_54387=T pbc="F F F"
N       -0.04130000       0.81630000      -1.65250000
H        0.06710000      -0.19460000      -1.61190000
H       -0.35610000       1.08940000      -0.72230000
H        0.90500000       1.18170000      -1.73230000
C       -0.65460000       1.47890000       1.68710000
C       -1.97530000       0.97210000       2.24480000
C       -1.15170000       1.90310000       3.12000000
C        0.16060000       1.16460000       2.93250000
C       -0.89840000       2.93870000       2.03640000
C       -3.54190000       3.37810000       4.67870000
O       -3.07440000       3.23580000       5.73280000
O       -4.02710000       3.53090000       3.63160000
H       -2.88680000       1.37330000       1.81350000
H       -2.02360000      -0.07250000       2.53680000
H        0.20060000       0.12830000       3.25370000
H        1.07640000       1.72750000       3.08410000
H       -0.02610000       3.57510000       2.14990000
H       -1.76620000       3.41950000       1.59650000
