16
Properties=species:S:1:pos:R:3 gdb_129838=T pbc="F F F"
N       -0.10590000       1.37920000      -0.18140000
C       -0.09090000      -0.00630000      -0.02650000
C       -1.07320000      -0.96820000      -0.17090000
C       -0.45250000      -2.17820000       0.22990000
C       -1.04600000      -3.55560000       0.22690000
C       -1.15840000      -4.10040000      -1.18850000
O       -2.16810000      -4.52990000      -1.68220000
N        0.81460000      -1.99400000       0.58240000
N        1.01200000      -0.65800000       0.42020000
H        0.68760000       1.74020000      -0.69760000
H       -0.96100000       1.70090000      -0.61410000
H       -2.08200000      -0.82140000      -0.52190000
H       -0.37460000      -4.21800000       0.78700000
H       -2.03740000      -3.58070000       0.68720000
H       -0.20190000      -4.06520000      -1.75790000
H        1.88590000      -0.25290000       0.70930000
