21
Properties=species:S:1:pos:R:3 gdb_104575=T pbc="F F F"
C       -3.01750000       0.06100000      -2.23140000
C       -2.25170000      -1.15170000      -1.73790000
O       -2.13760000      -2.14390000      -2.42620000
C       -1.66370000      -1.03900000      -0.33230000
C       -1.10580000      -2.32660000       0.24990000
C        0.30100000      -2.69320000      -0.19430000
O        0.49250000      -2.64520000      -1.59210000
C       -1.46740000      -2.68740000       1.67340000
C       -2.08040000      -3.44870000       0.52790000
H       -3.28340000      -0.06780000      -3.28100000
H       -3.93070000       0.19060000      -1.63890000
H       -2.42450000       0.97280000      -2.10360000
H       -0.88610000      -0.26240000      -0.37090000
H       -2.44910000      -0.62580000       0.31450000
H        1.01930000      -1.98360000       0.24050000
H        0.54890000      -3.68750000       0.21520000
H       -0.34020000      -2.90810000      -2.00950000
H       -0.71380000      -3.18520000       2.27510000
H       -2.09450000      -2.00070000       2.23260000
H       -3.12880000      -3.28300000       0.30420000
H       -1.74780000      -4.46580000       0.34960000
