17
Properties=species:S:1:pos:R:3 gdb_127300=T pbc="F F F"
C        0.02710000       1.41960000       0.07310000
N        0.08780000      -0.02560000      -0.01660000
C        0.14770000      -0.78720000      -1.14570000
C        0.12030000      -2.10070000      -0.74350000
C        0.03920000      -2.03520000       0.66690000
N        0.01730000      -0.76570000       1.09460000
C       -0.01020000      -3.17910000       1.60480000
C       -0.08750000      -2.86420000       3.08520000
O        0.01090000      -4.31790000       1.18130000
H        0.44470000       1.85310000      -0.83730000
H       -1.00560000       1.76170000       0.19450000
H        0.61240000       1.74500000       0.93400000
H        0.20710000      -0.33250000      -2.12210000
H        0.16110000      -2.98910000      -1.35010000
H       -0.97290000      -2.25780000       3.29980000
H       -0.12290000      -3.79690000       3.64890000
H        0.77780000      -2.26880000       3.39280000
