20
Properties=species:S:1:pos:R:3 gdb_13133=T pbc="F F F"
C       -0.22670000       1.55950000      -0.12740000
C        0.02020000       0.05810000      -0.05880000
C        1.33660000      -0.46160000      -0.67960000
O        1.80280000      -0.95990000       0.58910000
C        0.57670000      -0.56480000       1.25570000
C        0.83240000       0.31090000       2.46950000
C        1.61190000      -0.43040000       3.54980000
O        1.79670000       0.46170000       4.64000000
H        0.65190000       2.13130000       0.18590000
H       -0.46580000       1.85790000      -1.15390000
H       -1.06750000       1.85850000       0.50710000
H       -0.86230000      -0.47520000      -0.42220000
H        1.23120000      -1.26270000      -1.42240000
H        2.00300000       0.31080000      -1.08630000
H        0.01470000      -1.45950000       1.56520000
H        1.39700000       1.20450000       2.18570000
H       -0.12560000       0.64560000       2.88690000
H        1.05350000      -1.32900000       3.86120000
H        2.57250000      -0.76630000       3.13420000
H        2.35600000       0.02660000       5.28980000
