17
Properties=species:S:1:pos:R:3 gdb_124830=T pbc="F F F"
C        0.04400000       1.56780000       0.02730000
C       -0.04470000       0.04300000       0.07560000
O        0.40980000      -0.54650000      -1.13700000
C        0.83360000      -0.54380000       1.19040000
C        0.71470000      -2.03210000       1.29350000
N       -0.35920000      -2.61720000       1.75870000
O       -0.05940000      -3.98280000       1.66620000
C        1.17190000      -4.05290000       1.16100000
N        1.71420000      -2.90620000       0.90830000
H        1.07600000       1.88620000      -0.15060000
H       -0.57840000       1.96290000      -0.78340000
H       -0.30660000       2.01610000       0.96270000
H       -1.08560000      -0.25550000       0.27540000
H       -0.16880000      -0.25270000      -1.84750000
H        1.87980000      -0.29770000       0.99090000
H        0.54520000      -0.08870000       2.14240000
H        1.58930000      -5.03870000       1.01700000
