15
Properties=species:S:1:pos:R:3 gdb_30010=T pbc="F F F"
O        0.14240000       1.41170000      -0.22340000
C       -0.00280000       0.01370000      -0.04670000
C        0.62560000      -0.55070000       1.23960000
C       -0.24930000      -1.29970000       1.93430000
C       -1.53900000      -1.30530000       1.22020000
C       -1.39760000      -0.52620000       0.11480000
O       -2.52120000      -0.49430000      -0.62900000
C       -3.42140000      -1.28050000       0.04380000
C       -2.87740000      -1.80760000       1.18110000
H       -0.27340000       1.84000000       0.53350000
H        0.48950000      -0.43610000      -0.91960000
H        1.65110000      -0.33080000       1.50470000
H       -0.04800000      -1.81450000       2.86540000
H       -4.39730000      -1.35030000      -0.40750000
H       -3.38110000      -2.46150000       1.87600000
