21
Properties=species:S:1:pos:R:3 gdb_90444=T pbc="F F F"
C       -0.12860000       1.55840000      -0.09520000
C        0.01000000       0.03460000      -0.04580000
C        1.02760000      -0.47500000      -1.13240000
C        2.33860000      -0.63160000      -0.36940000
C        2.07340000      -0.74180000       0.92650000
C        2.57030000      -0.39360000       2.30070000
O        3.76480000       0.34360000       2.34950000
C        1.18020000       0.34120000       2.48470000
C        0.63010000      -0.50200000       1.27750000
H        0.84660000       2.04710000       0.00680000
H       -0.55760000       1.87430000      -1.05200000
H       -0.77830000       1.93010000       0.70380000
H       -0.97810000      -0.40750000      -0.21180000
H        0.69630000      -1.42330000      -1.57830000
H        1.11950000       0.23690000      -1.96160000
H        3.31410000      -0.56720000      -0.83580000
H        2.61500000      -1.27440000       2.95970000
H        4.03650000       0.41900000       3.26940000
H        0.68100000       0.22880000       3.45090000
H        1.29410000       1.39950000       2.24260000
H        0.09790000      -1.38750000       1.64400000
