13
Properties=species:S:1:pos:R:3 gdb_72=T pbc="F F F"
C       -0.04380000       1.54100000      -0.03910000
C        0.02770000       0.01890000       0.04780000
C        0.76810000      -0.48840000       1.28000000
C        0.87850000      -1.99750000       1.42390000
O        1.24180000       0.26650000       2.09790000
H        0.95800000       1.97690000      -0.06820000
H       -0.58450000       1.85360000      -0.93690000
H       -0.55170000       1.95740000       0.83440000
H       -0.97690000      -0.42710000       0.05350000
H        0.51850000      -0.40810000      -0.83810000
H        1.39920000      -2.42680000       0.56050000
H        1.42000000      -2.24450000       2.33780000
H       -0.11750000      -2.45360000       1.45140000
