21
Properties=species:S:1:pos:R:3 gdb_60142=T pbc="F F F"
C        0.04850000       1.50100000      -0.00470000
C       -0.09150000      -0.01630000       0.01020000
C        0.03250000      -0.59800000       1.42030000
O       -1.36060000      -0.30260000      -0.58560000
C       -1.54130000      -1.61340000      -0.99540000
C       -2.23600000      -2.67710000      -0.16480000
C       -3.42110000      -2.03910000       0.55560000
O       -3.93310000      -1.46900000      -0.67690000
C       -2.88790000      -2.08730000      -1.41890000
H        1.01850000       1.80320000       0.40100000
H       -0.04070000       1.88320000      -1.02470000
H       -0.73910000       1.95930000       0.60190000
H        0.69620000      -0.45640000      -0.62450000
H        1.01500000      -0.36170000       1.84180000
H       -0.73360000      -0.17240000       2.07660000
H       -0.07980000      -1.68510000       1.41630000
H       -0.72750000      -2.01870000      -1.60260000
H       -1.81910000      -3.65490000       0.04010000
H       -4.13140000      -2.76720000       0.96150000
H       -3.19660000      -1.27230000       1.30450000
H       -3.13680000      -2.49290000      -2.39410000
