16
Properties=species:S:1:pos:R:3 gdb_24265=T pbc="F F F"
C       -0.04800000       1.53920000      -0.01660000
C        1.45370000       1.88030000      -0.01540000
O        2.18780000       1.43640000       1.12770000
C        2.25860000       0.63920000      -0.08420000
C        1.25820000      -0.44270000      -0.10870000
C       -0.03180000       0.02850000      -0.03070000
C       -0.89150000      -1.09400000       0.07410000
C       -0.08050000      -2.21370000       0.04150000
N        1.23280000      -1.80810000      -0.06020000
H       -0.54060000       1.96050000       0.86740000
H       -0.53520000       1.97720000      -0.89690000
H        1.79330000       2.82140000      -0.44150000
H        3.24120000       0.57960000      -0.54210000
H       -1.96840000      -1.10730000       0.14670000
H       -0.33140000      -3.26240000       0.05780000
H        2.02700000      -2.42330000      -0.07990000
