17
Properties=species:S:1:pos:R:3 gdb_42215=T pbc="F F F"
O        0.47470000       0.41230000      -0.94920000
C        0.05210000       1.05450000      -0.00980000
C        0.81750000       1.18080000       1.22390000
C        1.43470000       1.29810000       2.25120000
C       -1.26780000       1.78440000      -0.00160000
C       -2.25450000       1.65110000      -1.19670000
C       -2.57810000       0.20220000      -0.71620000
C       -2.55160000       1.07310000       0.57230000
C       -3.36790000       2.13480000      -0.21870000
H        1.99360000       1.38830000       3.15090000
H       -1.11980000       2.79570000       0.39450000
H       -2.07620000       1.98450000      -2.21840000
H       -3.55860000      -0.18700000      -1.00230000
H       -1.79770000      -0.54650000      -0.84270000
H       -2.69970000       0.75180000       1.60380000
H       -3.30830000       3.16890000       0.13210000
H       -4.39190000       1.85570000      -0.47890000
