21
Properties=species:S:1:pos:R:3 gdb_100671=T pbc="F F F"
C       -0.07940000       1.62090000       0.10590000
C       -0.01650000       0.09020000      -0.00230000
O        0.67190000      -0.47260000       1.11340000
C       -1.43620000      -0.49840000      -0.04100000
O       -2.00490000      -0.25580000       1.24670000
C        0.76060000      -0.38810000      -1.24040000
O        0.08090000       0.05210000      -2.40350000
C        2.21670000       0.08030000      -1.28570000
O        2.80430000      -0.31230000      -2.52900000
H        0.89780000       2.02510000       0.38070000
H       -0.39140000       2.05750000      -0.84650000
H       -0.79640000       1.90920000       0.87870000
H        0.03030000      -0.47820000       1.83540000
H       -2.02410000      -0.02860000      -0.83810000
H       -1.37290000      -1.57760000      -0.23880000
H       -2.82250000      -0.75470000       1.32000000
H        0.77090000      -1.49320000      -1.19880000
H        0.73530000       0.00150000      -3.11360000
H        2.26640000       1.17210000      -1.27690000
H        2.77360000      -0.30410000      -0.42460000
H        2.94910000      -1.26430000      -2.49780000
