19
Properties=species:S:1:pos:R:3 gdb_29752=T pbc="F F F"
C       -0.45190000       1.65560000      -0.13030000
C        0.02880000       0.22380000       0.01430000
C        0.82630000      -0.47270000      -1.18580000
C        1.09070000       0.32610000      -2.45690000
C        1.94370000      -0.59890000      -0.16220000
N        3.08690000      -1.11300000       0.22420000
C        3.12710000      -0.76600000       1.56790000
C        1.99860000      -0.07740000       1.97530000
N        1.26740000       0.03910000       0.81500000
H        0.35070000       2.31680000      -0.46580000
H       -1.27190000       1.70700000      -0.85390000
H       -0.82670000       2.03250000       0.82660000
H       -0.77880000      -0.41640000       0.38470000
H        0.37490000      -1.43730000      -1.44180000
H        1.55770000       1.29100000      -2.24230000
H        1.76980000      -0.23100000      -3.10910000
H        0.16390000       0.50440000      -3.01220000
H        3.98170000      -1.02300000       2.17680000
H        1.71060000       0.34380000       2.92320000
