17
Properties=species:S:1:pos:R:3 gdb_131211=T pbc="F F F"
O        0.21510000       1.32370000       0.28750000
C        0.14220000       0.00110000       0.02210000
C        0.48930000      -0.77760000      -1.06100000
C        0.13750000      -2.09810000      -0.66300000
N       -0.38080000      -2.12340000       0.56090000
N       -0.36780000      -0.82100000       0.96170000
C        0.28010000      -3.35700000      -1.41970000
C        0.08580000      -3.38790000      -2.92200000
C        1.45950000      -3.57940000      -2.34450000
H        0.59740000       1.76940000      -0.47460000
H        0.92600000      -0.44450000      -1.98860000
H       -0.71420000      -0.56560000       1.87000000
H       -0.07330000      -4.21920000      -0.86510000
H       -0.42170000      -4.24590000      -3.34890000
H       -0.13760000      -2.44730000      -3.41380000
H        2.17460000      -2.76970000      -2.44170000
H        1.90050000      -4.56970000      -2.37260000
