17
Properties=species:S:1:pos:R:3 gdb_110242=T pbc="F F F"
C        0.27750000       1.00350000       0.44030000
O       -0.39500000       0.00040000      -0.30560000
C        0.37190000      -0.53970000      -1.31140000
C        1.49420000      -1.57070000      -1.05930000
C        1.00300000      -2.52120000      -0.00230000
O        1.41000000      -3.01180000       0.99930000
O       -0.21780000      -2.75320000      -0.61790000
C        0.17950000      -1.93740000      -1.75830000
C       -0.15480000      -2.46300000      -3.11260000
H        1.17420000       0.60120000       0.92930000
H        0.56970000       1.85010000      -0.19790000
H       -0.42310000       1.35320000       1.20020000
H        0.64470000       0.15660000      -2.11060000
H        2.50910000      -1.45780000      -1.41320000
H       -1.24080000      -2.50560000      -3.24500000
H        0.25840000      -1.81070000      -3.88690000
H        0.24860000      -3.47050000      -3.24750000
