20
Properties=species:S:1:pos:R:3 gdb_91857=T pbc="F F F"
C        0.04630000       1.57890000      -0.12560000
C        0.04880000       0.05600000      -0.02260000
C        0.83640000      -0.66410000      -1.15240000
C        1.29300000      -1.98560000      -0.54930000
N        2.48350000      -1.88270000       0.28180000
C        1.16970000      -1.88000000       0.95960000
C        0.64010000      -0.49770000       1.30390000
C        0.79810000      -3.09940000       1.70840000
O        1.38090000      -4.15550000       1.59840000
H        1.06660000       1.97530000      -0.06870000
H       -0.39000000       1.91360000      -1.07270000
H       -0.53430000       2.03210000       0.68510000
H       -0.98920000      -0.29860000      -0.08120000
H        0.21850000      -0.81410000      -2.04210000
H        1.71480000      -0.08000000      -1.44810000
H        1.08310000      -2.93060000      -1.04090000
H        2.87220000      -2.81900000       0.41440000
H        1.46190000       0.13150000       1.66180000
H       -0.11570000      -0.53770000       2.09580000
H       -0.07470000      -2.99140000       2.38820000
