15
Properties=species:S:1:pos:R:3 gdb_1491=T pbc="F F F"
C        0.00010000       1.57340000       0.04460000
C       -0.00430000       0.04380000      -0.00650000
C        0.71300000      -0.58250000       1.18910000
C        0.72600000      -2.10060000       1.16740000
O        0.21870000      -2.76170000       0.28750000
C        1.40080000      -2.73050000       2.29410000
C        1.96280000      -3.23230000       3.23300000
H        1.02150000       1.97030000       0.04720000
H       -0.51840000       1.99700000      -0.82060000
H       -0.49980000       1.94460000       0.94630000
H       -1.03260000      -0.33140000      -0.04170000
H        0.46980000      -0.30610000      -0.92970000
H        1.75690000      -0.24320000       1.25330000
H        0.25790000      -0.26840000       2.13950000
H        2.45490000      -3.69350000       4.05470000
