23
Properties=species:S:1:pos:R:3 gdb_108503=T pbc="F F F"
C        0.02860000       1.63560000       0.05150000
C        0.01770000       0.10630000      -0.05350000
C       -1.37880000      -0.50860000      -0.01260000
C       -2.08890000      -0.48320000       1.38320000
C       -2.12760000      -2.03700000       1.40530000
C       -1.46390000      -2.07570000      -0.00070000
O       -2.29850000      -2.48250000      -1.06870000
C       -3.14530000      -1.38620000      -1.39740000
C       -2.28190000      -0.13070000      -1.20060000
H        1.05210000       2.02290000       0.05080000
H       -0.50230000       2.09760000      -0.78730000
H       -0.45360000       1.97350000       0.97510000
H        0.51240000      -0.20230000      -0.98450000
H        0.61690000      -0.31490000       0.76480000
H       -1.48680000      -0.03300000       2.17690000
H       -3.06900000       0.00240000       1.38770000
H       -1.52510000      -2.49510000       2.19350000
H       -3.12250000      -2.48810000       1.42780000
H       -0.53180000      -2.64210000      -0.07620000
H       -3.49520000      -1.52850000      -2.42320000
H       -4.02820000      -1.36130000      -0.73830000
H       -2.88190000       0.76570000      -1.01970000
H       -1.67100000       0.04300000      -2.09360000
