22
Properties=species:S:1:pos:R:3 gdb_108824=T pbc="F F F"
C        0.35550000       0.98430000       0.64650000
C       -0.37250000       0.34180000      -0.54530000
C        0.56840000      -0.27860000      -1.52830000
N        0.70770000       0.04820000      -2.74870000
C        1.79440000      -0.78560000      -3.29610000
C        2.95380000       0.10450000      -3.75230000
C        2.10100000      -1.80700000      -2.15040000
C        3.54520000      -2.01390000      -1.72750000
O        1.34660000      -1.27860000      -1.02740000
H        0.96170000       0.24570000       1.17690000
H        1.01620000       1.78990000       0.31180000
H       -0.36570000       1.40810000       1.35070000
H       -1.05180000      -0.43750000      -0.17880000
H       -0.96970000       1.08000000      -1.08440000
H        1.41590000      -1.32440000      -4.17200000
H        3.36140000       0.68820000      -2.92130000
H        3.76380000      -0.48460000      -4.19380000
H        2.59060000       0.80870000      -4.50520000
H        1.65240000      -2.77820000      -2.39360000
H        4.01760000      -1.07050000      -1.44280000
H        3.59250000      -2.69250000      -0.87130000
H        4.12240000      -2.45850000      -2.54410000
