13
Properties=species:S:1:pos:R:3 gdb_31907=T pbc="F F F"
C       -0.19630000       1.44830000       0.01170000
O       -0.06340000       0.01940000       0.00450000
C       -1.16990000      -0.70090000       0.01120000
C       -1.37070000      -2.05470000       0.00940000
N       -2.72500000      -2.29100000       0.01890000
C       -3.28010000      -1.11800000       0.02600000
O       -2.37200000      -0.08050000       0.02180000
C       -4.65130000      -0.78070000       0.03740000
N       -5.77280000      -0.49220000       0.04660000
H        0.82260000       1.83300000       0.00500000
H       -0.73530000       1.79160000      -0.87570000
H       -0.72070000       1.78390000       0.91070000
H       -0.63810000      -2.84320000       0.00190000
