18
Properties=species:S:1:pos:R:3 gdb_104545=T pbc="F F F"
C       -0.05640000       1.63590000       0.09950000
C        0.19040000       0.13050000       0.21690000
C        0.68060000      -0.50910000      -1.08220000
C        0.55840000      -2.05960000      -1.16360000
C       -0.50250000      -1.77390000      -2.20070000
N       -1.26390000      -2.48150000      -2.89980000
O       -0.36480000      -0.40230000      -2.13400000
C        1.94400000       0.03760000      -1.55050000
C        3.00210000       0.47350000      -1.91740000
H        0.86650000       2.16870000      -0.14630000
H       -0.78890000       1.84420000      -0.68530000
H       -0.44090000       2.03610000       1.04160000
H        0.93360000      -0.08020000       0.99520000
H       -0.73390000      -0.38270000       0.50600000
H        1.43860000      -2.57850000      -1.54270000
H        0.20260000      -2.54340000      -0.25250000
H       -1.85470000      -1.90780000      -3.50410000
H        3.93330000       0.86170000      -2.25040000
