16
Properties=species:S:1:pos:R:3 gdb_7971=T pbc="F F F"
C       -0.07240000       1.38700000       0.05830000
N       -0.01330000      -0.04970000       0.05830000
C       -1.16680000      -0.90850000       0.08460000
C       -0.55610000      -2.29430000       0.04290000
N       -1.36760000      -3.39820000       0.12020000
C        0.78600000      -2.19750000       0.00370000
C        1.17480000      -0.77350000       0.00970000
O        2.28570000      -0.27940000      -0.02510000
H        0.95800000       1.74750000       0.03050000
H       -0.60940000       1.77620000      -0.81780000
H       -0.56210000       1.77730000       0.96080000
H       -1.77320000      -0.77270000       0.99360000
H       -1.83330000      -0.73900000      -0.77730000
H       -2.31060000      -3.29660000      -0.22300000
H       -0.94950000      -4.28280000      -0.12450000
H        1.51220000      -2.99580000      -0.02820000
