21
Properties=species:S:1:pos:R:3 gdb_62908=T pbc="F F F"
O       -0.08330000       0.74370000       2.19640000
C        0.33330000       0.86560000       1.07030000
C        1.38470000       1.83340000       0.60890000
C        0.95690000       3.20450000      -0.04520000
C        0.54900000       3.64640000       1.38980000
C        1.93700000       2.94720000       1.54480000
C        2.41870000       3.72380000       0.25410000
C        3.59530000       3.16510000      -0.55760000
C        2.64170000       5.23910000       0.35270000
H       -0.04260000       0.20190000       0.25490000
H        2.10480000       1.25750000       0.02310000
H        0.38830000       3.32710000      -0.96980000
H        0.48860000       4.71240000       1.59370000
H       -0.29270000       3.12590000       1.84130000
H        2.49530000       2.79160000       2.46920000
H        3.58470000       2.08590000      -0.71210000
H        3.62570000       3.63570000      -1.54670000
H        4.53940000       3.41020000      -0.05830000
H        3.60390000       5.44220000       0.83620000
H        2.69080000       5.67540000      -0.65150000
H        1.87770000       5.78230000       0.90730000
