20
Properties=species:S:1:pos:R:3 gdb_79990=T pbc="F F F"
C        0.01760000       1.46860000      -0.12580000
N        0.03100000       0.00960000      -0.03990000
C       -1.14610000      -0.67050000       0.62850000
C       -0.75630000      -2.12560000       0.39570000
C        0.54470000      -2.12170000       0.70810000
C        0.79950000      -0.66140000       1.10010000
C        2.17880000      -0.18270000       1.46360000
C       -0.45180000      -0.47350000       2.04180000
O       -0.50000000       0.78980000       2.65390000
H        1.01380000       1.80290000      -0.43670000
H       -0.67550000       1.74790000      -0.92830000
H       -0.26280000       2.00960000       0.78440000
H       -2.15270000      -0.32220000       0.39580000
H       -1.40280000      -2.93390000       0.08650000
H        1.27160000      -2.92160000       0.72150000
H        2.84270000      -0.22150000       0.59380000
H        2.15200000       0.84480000       1.83620000
H        2.60920000      -0.81390000       2.24820000
H       -0.63120000      -1.27240000       2.77430000
H       -1.25790000       0.81130000       3.24580000
