20
Properties=species:S:1:pos:R:3 gdb_12530=T pbc="F F F"
C       -0.11270000       1.55500000       0.03970000
C        0.00530000       0.02140000       0.00970000
C        0.62180000      -0.44510000      -1.32480000
C        0.42590000      -1.92370000      -1.67520000
C        1.05850000      -2.93760000      -0.76520000
C        1.47180000      -2.79240000       0.50260000
C        1.38820000      -1.63810000       1.39390000
C        0.76840000      -0.46190000       1.21940000
H        0.87420000       2.02430000      -0.04520000
H       -0.73070000       1.92010000      -0.78630000
H       -0.56450000       1.89830000       0.97610000
H       -1.01640000      -0.38610000       0.06710000
H        0.17910000       0.14820000      -2.13400000
H        1.69300000      -0.21020000      -1.31860000
H       -0.64940000      -2.14440000      -1.76050000
H        0.82120000      -2.08850000      -2.68720000
H        1.19820000      -3.91880000      -1.21580000
H        1.92780000      -3.66740000       0.96200000
H        1.88040000      -1.78630000       2.35310000
H        0.81600000       0.24560000       2.04560000
