15
Properties=species:S:1:pos:R:3 gdb_123369=T pbc="F F F"
C        0.03930000      -0.14770000       1.20990000
C        0.01310000       0.53890000       0.22400000
C        0.01680000       1.36610000      -0.98610000
N        1.24190000       2.13490000      -1.21280000
C        1.49070000       3.19460000      -0.34900000
C        0.78530000       3.77100000       0.68800000
N        1.47820000       4.86030000       1.13100000
N        2.56910000       4.99630000       0.44690000
N        2.58510000       3.98680000      -0.46680000
H        0.05600000      -0.74650000       2.08720000
H       -0.14110000       0.73240000      -1.86540000
H       -0.81840000       2.07490000      -0.96070000
H        2.04450000       1.53120000      -1.34480000
H       -0.14050000       3.46080000       1.14110000
H        3.33330000       3.93450000      -1.13880000
