17
Properties=species:S:1:pos:R:3 gdb_78581=T pbc="F F F"
C       -0.03550000       1.54490000      -0.24500000
N        0.00050000       0.09560000      -0.07230000
C       -1.09170000      -0.49810000       0.75240000
C       -0.18540000      -1.69530000       1.16690000
C       -0.55300000      -1.53900000       2.66350000
C        0.43310000      -1.94720000       3.65280000
N        1.22280000      -2.26310000       4.43630000
C       -0.49250000      -0.07800000       2.14730000
C        0.68830000      -0.40490000       1.15470000
H        0.93790000       1.88410000      -0.61290000
H       -0.78410000       1.79620000      -1.00310000
H       -0.27160000       2.10950000       0.67240000
H       -2.13870000      -0.52160000       0.44630000
H       -0.00670000      -2.60430000       0.59640000
H       -1.54540000      -1.90080000       2.94820000
H       -0.66950000       0.82540000       2.72760000
H        1.76080000      -0.31540000       1.32730000
