25
Properties=species:S:1:pos:R:3 gdb_102644=T pbc="F F F"
C        0.73940000      -0.47140000       1.28960000
C        0.20160000       0.08440000      -0.03520000
C        0.85760000      -0.47050000      -1.31900000
C        2.33650000      -0.05660000      -1.44150000
O        2.54510000       1.34680000      -1.40370000
C        0.75340000      -1.99680000      -1.50470000
C       -0.65890000      -2.56640000      -1.66120000
C       -0.64200000      -3.99770000      -2.20180000
O       -1.28460000      -2.52570000      -0.37650000
H        0.52020000      -1.53770000       1.38420000
H        1.82190000      -0.33550000       1.39650000
H        0.26530000       0.03680000       2.13550000
H       -0.87270000      -0.10940000      -0.07980000
H        0.31430000       1.17640000      -0.05140000
H        0.33870000       0.00220000      -2.16550000
H        2.93910000      -0.56730000      -0.67360000
H        2.72250000      -0.38280000      -2.41370000
H        2.38130000       1.64660000      -0.50490000
H        1.31710000      -2.26570000      -2.40720000
H        1.23750000      -2.52410000      -0.67310000
H       -1.21830000      -1.92820000      -2.36650000
H       -1.65950000      -4.40100000      -2.26730000
H       -0.20560000      -4.03730000      -3.20500000
H       -0.06080000      -4.64930000      -1.54140000
H       -2.17170000      -2.88790000      -0.46570000
