19
Properties=species:S:1:pos:R:3 gdb_87914=T pbc="F F F"
C       -0.08800000       1.51110000      -0.08790000
C       -0.00840000       0.01030000       0.08220000
C        1.29460000      -0.74720000      -0.13830000
C        0.70400000      -0.61280000       1.23730000
C        1.36800000       0.12560000       2.39150000
C        1.65610000      -1.01770000       3.37190000
C        0.62260000      -2.07910000       3.00700000
O        0.28080000      -3.03720000       3.63560000
O        0.10070000      -1.78600000       1.78230000
H        0.82940000       2.00460000       0.24820000
H       -0.23570000       1.77470000      -1.14040000
H       -0.92220000       1.93380000       0.48240000
H       -0.89750000      -0.53340000      -0.22560000
H        1.23960000      -1.72040000      -0.61260000
H        2.18900000      -0.17410000      -0.36470000
H        2.26120000       0.66960000       2.08060000
H        0.67150000       0.84520000       2.83570000
H        2.64900000      -1.45420000       3.21560000
H        1.57390000      -0.75510000       4.42710000
