17
Properties=species:S:1:pos:R:3 gdb_56782=T pbc="F F F"
O        0.31300000       1.54450000      -0.03420000
C        0.11880000       0.14070000       0.02150000
C        0.62250000      -0.52050000      -1.20240000
N        1.05060000      -1.02830000      -2.14810000
C        0.72950000      -0.47770000       1.25450000
C        2.19980000      -0.78370000       1.41510000
C        1.18710000      -1.88990000       1.58780000
C        0.47530000      -1.72720000       2.93240000
N        0.02000000      -0.35900000       2.52940000
H        1.26370000       1.70780000      -0.01000000
H       -0.96630000       0.00200000       0.06820000
H        2.77870000      -0.84440000       0.49840000
H        2.74110000      -0.39530000       2.27510000
H        1.18340000      -2.76950000       0.95820000
H       -0.37620000      -2.39850000       3.07670000
H        1.11950000      -1.77270000       3.81850000
H        0.35820000       0.39390000       3.12320000
