17
Properties=species:S:1:pos:R:3 gdb_43397=T pbc="F F F"
O        0.01710000       0.02290000      -0.27470000
C        0.00380000       1.21240000      -0.01740000
C       -1.24700000       1.96680000       0.20050000
C       -1.22410000       3.30200000       0.26990000
C        0.07010000       4.06310000       0.26560000
O        1.16560000       3.26690000       0.67180000
C        1.25560000       2.04120000      -0.00170000
C        2.58120000       1.35270000       0.08050000
C        2.15590000       1.95200000      -1.23220000
H       -2.16600000       1.39030000       0.20610000
H       -2.14250000       3.88260000       0.31450000
H        0.23980000       4.49750000      -0.73740000
H        0.02550000       4.89930000       0.97130000
H        3.34570000       1.87020000       0.64780000
H        2.55070000       0.27440000       0.18140000
H        1.84860000       1.28470000      -2.02900000
H        2.62670000       2.87880000      -1.53980000
