22
Properties=species:S:1:pos:R:3 gdb_111311=T pbc="F F F"
C        1.25640000       0.92230000       0.89140000
C        0.14200000       0.53750000      -0.08870000
C        0.66900000      -0.19410000      -1.31740000
C        1.15230000      -1.64400000      -1.14860000
N       -0.04560000      -2.44350000      -0.78400000
C        0.23150000      -2.13070000      -2.20530000
C       -0.31510000      -0.71930000      -2.45860000
C       -1.81040000      -0.50350000      -2.29470000
O        0.12950000      -0.32770000      -3.74970000
H        1.78830000       0.03550000       1.25270000
H        1.99430000       1.58090000       0.41900000
H        0.85450000       1.44470000       1.76520000
H       -0.58960000      -0.09970000       0.41860000
H       -0.39290000       1.44280000      -0.40500000
H        1.44070000       0.39600000      -1.82340000
H        2.14480000      -1.99040000      -0.88750000
H        0.26560000      -3.40060000      -0.62310000
H        0.35810000      -2.90730000      -2.94960000
H       -2.16070000      -0.92430000      -1.35010000
H       -2.05880000       0.56520000      -2.30780000
H       -2.34630000      -0.98590000      -3.11830000
H       -0.12760000       0.59120000      -3.88230000
