19
Properties=species:S:1:pos:R:3 gdb_112781=T pbc="F F F"
C        0.16580000       0.99480000      -0.41040000
O       -0.43740000       0.18670000       0.57930000
C        0.47780000      -0.48440000       1.38570000
C       -0.16230000      -1.38260000       2.45640000
C        0.94910000      -2.43390000       2.19980000
O        0.64610000      -3.79350000       2.22540000
C        1.24990000      -1.74140000       0.80950000
C        0.57230000      -2.40950000      -0.27980000
C       -0.01340000      -3.01750000      -1.13870000
H        0.75430000       0.39720000      -1.12030000
H       -0.63990000       1.49430000      -0.95300000
H        0.82180000       1.75780000       0.03680000
H        1.21190000       0.21670000       1.81210000
H       -0.28030000      -0.98500000       3.46570000
H       -1.12670000      -1.74790000       2.09190000
H        1.79830000      -2.29150000       2.87340000
H        0.08030000      -3.97970000       1.46420000
H        2.30700000      -1.59220000       0.57410000
H       -0.51660000      -3.52380000      -1.92520000
