21
Properties=species:S:1:pos:R:3 gdb_120269=T pbc="F F F"
C       -0.10350000       1.51720000      -0.06130000
C        0.13210000       0.01890000       0.01940000
O        0.48800000      -0.44690000      -1.27230000
C        0.71120000      -1.82280000      -1.34770000
C        0.78920000      -2.38760000      -2.76380000
O        1.97420000      -1.88620000      -3.39020000
C        2.10670000      -2.99140000      -2.49360000
C        2.16900000      -2.40870000      -1.07160000
C        3.29630000      -1.42550000      -0.79140000
H        0.80430000       2.03020000      -0.39070000
H       -0.90090000       1.74090000      -0.77560000
H       -0.39100000       1.91140000       0.91800000
H        0.92790000      -0.20700000       0.74580000
H       -0.77790000      -0.49960000       0.36550000
H       -0.03350000      -2.37600000      -0.75520000
H       -0.01960000      -2.69890000      -3.41500000
H        2.54410000      -3.90290000      -2.88440000
H        2.12370000      -3.19460000      -0.31110000
H        3.31070000      -0.64070000      -1.54990000
H        3.17920000      -0.95440000       0.18950000
H        4.26610000      -1.93520000      -0.80010000
