23
Properties=species:S:1:pos:R:3 gdb_61633=T pbc="F F F"
C        0.13390000       1.59930000      -0.01050000
C       -0.00590000       0.06870000       0.03940000
C        0.59330000      -0.63540000      -1.20250000
C       -0.10260000      -0.26690000      -2.49920000
C        0.42280000       0.82030000      -3.41160000
C        0.46930000      -0.62110000      -3.85570000
C        1.78510000      -1.34920000      -4.02870000
C        0.69430000      -0.45910000       1.27540000
O        0.18370000      -1.12260000       2.14020000
H        1.18850000       1.89800000      -0.03770000
H       -0.34870000       2.00310000      -0.90300000
H       -0.32480000       2.06520000       0.86710000
H       -1.06220000      -0.20740000       0.13230000
H        1.66300000      -0.39990000      -1.26460000
H        0.52400000      -1.72050000      -1.04910000
H       -1.18650000      -0.33680000      -2.43410000
H       -0.27950000       1.49860000      -3.88440000
H        1.36630000       1.28390000      -3.13790000
H       -0.27780000      -0.89930000      -4.59520000
H        2.53680000      -1.01850000      -3.30620000
H        1.66310000      -2.43160000      -3.90840000
H        2.19550000      -1.17170000      -5.02880000
H        1.77660000      -0.18320000       1.33060000
