18
Properties=species:S:1:pos:R:3 gdb_64911=T pbc="F F F"
C       -0.09950000       1.54620000       0.02710000
C       -0.04290000       0.03340000       0.04970000
C        1.25230000      -0.70570000      -0.23400000
C        0.71970000      -0.70950000       1.17720000
C        1.42370000       0.07860000       2.27470000
C        0.15860000      -1.95360000       1.65780000
N       -0.26470000      -2.94590000       2.07580000
C       -1.27700000      -0.63470000      -0.47240000
O       -2.23020000      -0.02960000      -0.89330000
H        0.86610000       2.00050000       0.25390000
H       -0.41020000       1.87830000      -0.96680000
H       -0.83950000       1.92220000       0.73910000
H        1.20330000      -1.62950000      -0.80040000
H        2.13150000      -0.10030000      -0.42560000
H        1.92560000       0.95850000       1.87040000
H        0.71450000       0.40400000       3.04080000
H        2.17800000      -0.55040000       2.75600000
H       -1.25330000      -1.74510000      -0.46460000
