21
Properties=species:S:1:pos:R:3 gdb_98418=T pbc="F F F"
C       -0.32970000       1.52940000      -0.18570000
N       -0.27450000       0.08550000      -0.30200000
C        0.77490000      -0.56190000      -0.88560000
O        1.73610000       0.03850000      -1.34730000
C        0.67410000      -2.07730000      -0.90550000
C       -0.66520000      -2.72220000      -0.60050000
C        1.61990000      -2.75270000      -1.85340000
N        1.82640000      -2.86610000      -0.42380000
C        2.99660000      -2.22450000       0.17100000
H       -0.29090000       1.85000000       0.86190000
H        0.53650000       1.93240000      -0.71090000
H       -1.24470000       1.92630000      -0.63870000
H       -1.02760000      -0.45580000       0.08490000
H       -1.45330000      -2.35570000      -1.26770000
H       -0.58340000      -3.80360000      -0.72670000
H       -0.97510000      -2.54920000       0.43780000
H        1.29680000      -3.65750000      -2.36420000
H        2.27640000      -2.09370000      -2.41610000
H        3.28240000      -1.28070000      -0.30510000
H        2.79730000      -2.04120000       1.23220000
H        3.83060000      -2.93040000       0.10420000
