22
Properties=species:S:1:pos:R:3 gdb_121866=T pbc="F F F"
C        0.21100000       1.84170000       0.02060000
C        0.06660000       0.31280000       0.04890000
C        0.65420000      -0.37220000      -1.20480000
C       -0.06150000      -0.02390000      -2.51290000
C        0.50270000      -0.78920000      -3.70350000
O       -0.21930000      -0.39220000      -4.86000000
C        0.80610000      -0.23170000       1.27490000
N        0.06420000      -1.01380000       2.11280000
O        1.98430000      -0.00210000       1.47560000
H        1.27020000       2.11140000       0.00200000
H       -0.28170000       2.27300000      -0.85410000
H       -0.23450000       2.29430000       0.91230000
H       -0.99860000       0.05340000       0.11780000
H        1.71700000      -0.11000000      -1.26660000
H        0.61620000      -1.46010000      -1.05650000
H       -1.13280000      -0.24910000      -2.43350000
H        0.01840000       1.04620000      -2.73170000
H        1.57780000      -0.56990000      -3.80880000
H        0.40910000      -1.87380000      -3.52830000
H        0.14680000      -0.85780000      -5.61750000
H       -0.92120000      -1.15760000       1.98480000
H        0.50570000      -1.37860000       2.94140000
