11
Properties=species:S:1:pos:R:3 gdb_918=T pbc="F F F"
N       -0.02240000       1.33500000       0.01010000
C       -0.04020000       0.07030000       0.00340000
O        1.16440000      -0.66480000      -0.00790000
C        1.13680000      -2.01040000      -0.01510000
N        0.10610000      -2.76180000      -0.01290000
C       -1.11840000      -2.09720000      -0.00190000
C       -1.22900000      -0.75550000       0.00610000
H        0.93310000       1.69200000       0.00630000
H        2.14280000      -2.41980000      -0.02340000
H       -1.99140000      -2.74090000      -0.00010000
H       -2.18260000      -0.24470000       0.01460000
