15
Properties=species:S:1:pos:R:3 gdb_8169=T pbc="F F F"
O        0.05510000       1.41200000       0.03540000
C       -0.00990000       0.04270000       0.07590000
C        0.30930000      -0.83320000       1.33170000
C       -0.35530000      -1.91520000       0.43820000
C       -1.33440000      -0.80960000      -0.05490000
N        0.64550000      -2.00150000      -0.66040000
C        0.82210000      -0.67500000      -0.99590000
O        1.42660000      -0.15180000      -1.90360000
H        0.59570000       1.62980000      -0.74090000
H        1.35450000      -0.98340000       1.60910000
H       -0.30030000      -0.55680000       2.19400000
H       -0.67510000      -2.88120000       0.81800000
H       -2.08670000      -0.52270000       0.68280000
H       -1.77910000      -0.92910000      -1.04640000
H        0.60930000      -2.71800000      -1.37050000
