18
Properties=species:S:1:pos:R:3 gdb_68769=T pbc="F F F"
C       -0.06570000       1.53930000      -0.00450000
C        0.11750000       0.04650000       0.00410000
C        0.45780000      -0.67220000      -1.29360000
O        1.13410000      -1.88580000      -0.92600000
C        1.41630000      -1.92250000       0.40470000
O        2.10770000      -2.76530000       0.89940000
C        0.75230000      -0.75130000       1.08560000
C        1.32050000      -0.27530000       2.39060000
N       -0.72280000      -0.83110000       0.84190000
H        0.80230000       2.04230000      -0.44340000
H       -0.94730000       1.81950000      -0.59210000
H       -0.20440000       1.92770000       1.00880000
H       -0.43400000      -0.93820000      -1.86790000
H        1.13250000      -0.07760000      -1.92000000
H        2.37430000      -0.00110000       2.28280000
H        0.77580000       0.59380000       2.77100000
H        1.26450000      -1.07500000       3.13510000
H       -1.17740000      -0.26240000       1.55680000
