21
Properties=species:S:1:pos:R:3 gdb_113724=T pbc="F F F"
C        0.27550000       0.39210000      -1.84930000
C       -0.28650000       0.83230000      -0.49120000
C       -1.56980000       0.09320000      -0.16400000
C       -1.55100000      -1.18760000       0.59930000
N       -2.16940000       0.00470000       1.17550000
C       -1.50760000       0.63880000       2.31550000
C       -2.00540000       2.08290000       2.47650000
C       -1.80820000      -0.14930000       3.52390000
N       -2.02360000      -0.75940000       4.48090000
H        1.18520000       0.94680000      -2.09600000
H        0.51870000      -0.67510000      -1.84710000
H       -0.44980000       0.56630000      -2.65120000
H        0.46940000       0.66040000       0.28220000
H       -0.47800000       1.91300000      -0.51110000
H       -2.33300000       0.20250000      -0.93440000
H       -2.22860000      -2.00300000       0.36370000
H       -0.58770000      -1.50250000       1.00050000
H       -0.40890000       0.64860000       2.22630000
H       -3.09210000       2.09300000       2.58310000
H       -1.55470000       2.55220000       3.35440000
H       -1.73560000       2.66350000       1.59090000
