16
Properties=species:S:1:pos:R:3 gdb_42482=T pbc="F F F"
O       -0.04880000      -0.07750000      -0.34670000
C        0.06920000       1.07940000      -0.04530000
O        1.19440000       1.78200000       0.02120000
C        2.41100000       1.05490000      -0.32410000
C        3.56440000       1.99960000      -0.19770000
C        4.17710000       2.26090000       1.15500000
C        4.92550000       1.43900000       0.14000000
C       -1.07610000       1.92820000       0.31490000
N       -2.01030000       2.54890000       0.58960000
H        2.50470000       0.20200000       0.35520000
H        2.29300000       0.66610000      -1.33990000
H        3.53930000       2.83310000      -0.89270000
H        4.52560000       3.26460000       1.36770000
H        3.75060000       1.74790000       2.01050000
H        5.00950000       0.37070000       0.31010000
H        5.78620000       1.87670000      -0.35190000
