21
Properties=species:S:1:pos:R:3 gdb_110886=T pbc="F F F"
O        0.83540000      -0.06790000       1.20890000
C        0.29190000      -0.17940000      -0.10700000
C       -1.16030000      -0.59610000      -0.06650000
C       -1.94200000      -1.20950000      -1.20650000
C       -1.22740000      -1.82830000      -2.40270000
C       -0.34950000      -2.99190000      -1.87700000
O        1.01880000      -2.65270000      -2.09980000
C       -0.71060000      -3.17800000      -0.37180000
C       -1.63720000      -2.03420000       0.02810000
H        0.71350000      -0.92200000       1.63600000
H        0.37640000       0.82450000      -0.53830000
H        0.89010000      -0.85490000      -0.72780000
H       -1.75210000       0.08620000       0.54080000
H       -2.94040000      -0.82130000      -1.37830000
H       -1.97490000      -2.20820000      -3.10620000
H       -0.59600000      -1.12680000      -2.95640000
H       -0.57250000      -3.91530000      -2.42900000
H        1.56290000      -3.37210000      -1.76370000
H       -1.23210000      -4.12950000      -0.22220000
H        0.20900000      -3.22710000       0.22540000
H       -2.41320000      -2.25580000       0.75320000
