17
Properties=species:S:1:pos:R:3 gdb_80089=T pbc="F F F"
O        0.13090000       1.32260000      -0.15460000
C       -0.03300000      -0.04990000      -0.03250000
C       -0.45710000      -0.68100000       1.27100000
C       -0.79860000       0.22460000       2.39190000
C       -1.75940000       1.15110000       2.31300000
C       -2.64560000       1.31650000       1.10510000
C       -2.65550000       0.11880000       0.15780000
O       -3.64630000      -0.16540000      -0.48000000
C       -1.41350000      -0.69370000       0.06580000
H        0.10540000       1.70470000       0.73310000
H        0.67950000      -0.59950000      -0.64130000
H        0.01170000      -1.62290000       1.53490000
H       -0.19660000       0.13960000       3.29210000
H       -1.93610000       1.82160000       3.14960000
H       -3.68100000       1.52820000       1.38680000
H       -2.30680000       2.17920000       0.51010000
H       -1.54820000      -1.62740000      -0.46780000
