21
Properties=species:S:1:pos:R:3 gdb_71131=T pbc="F F F"
O       -0.14680000       1.39120000      -0.02070000
C        0.01100000      -0.01610000       0.01990000
C        0.59500000      -0.55500000       1.35020000
C        0.14060000      -2.00550000       1.35140000
C       -1.09600000      -2.08770000       0.46950000
C       -1.37410000      -0.68800000      -0.05320000
C        0.20800000      -2.70010000       0.00940000
C        0.98740000      -2.07410000      -1.13890000
C        0.87510000      -0.52240000      -1.14700000
H        0.73050000       1.78670000      -0.06340000
H        1.68440000      -0.43160000       1.40020000
H        0.15480000      -0.00650000       2.19070000
H        0.22950000      -2.59400000       2.25760000
H       -1.92640000      -2.73810000       0.71950000
H       -2.07290000      -0.15640000       0.60220000
H       -1.78270000      -0.66280000      -1.06940000
H        0.25320000      -3.78490000       0.04820000
H        2.03800000      -2.37800000      -1.06810000
H        0.62100000      -2.48200000      -2.08780000
H        0.43430000      -0.16390000      -2.08260000
H        1.87190000      -0.06820000      -1.07200000
