17
Properties=species:S:1:pos:R:3 gdb_64567=T pbc="F F F"
O       -0.02300000       1.39880000       0.04210000
C        0.02490000       0.00500000       0.02070000
C        0.92550000      -0.49080000       1.12070000
O        1.43640000       0.28450000       1.89960000
C       -1.40370000      -0.65260000      -0.21520000
C       -1.22800000      -0.21040000      -1.70450000
C        0.22900000      -0.62580000      -1.40920000
O        0.15230000      -2.03440000      -1.15530000
C       -1.04640000      -2.13200000      -0.34040000
H        0.52850000       1.65670000       0.79920000
H        1.12550000      -1.57370000       1.17050000
H       -2.25600000      -0.36370000       0.39720000
H       -1.75710000      -0.78180000      -2.47070000
H       -1.34880000       0.86160000      -1.84150000
H        1.08640000      -0.39890000      -2.04010000
H       -0.81570000      -2.63330000       0.60530000
H       -1.81310000      -2.71360000      -0.86570000
