20
Properties=species:S:1:pos:R:3 gdb_60805=T pbc="F F F"
C        0.42790000       1.34180000      -0.32190000
C        0.11430000      -0.15020000      -0.07730000
C        0.74930000      -0.52700000       1.24860000
O        0.16650000      -0.93920000       2.22250000
C       -1.38780000      -0.51470000      -0.13280000
C       -2.11950000       0.10220000      -1.33280000
C       -1.52290000      -2.04600000      -0.22160000
N       -1.89920000      -2.66960000       0.93420000
O       -1.33620000      -2.64050000      -1.26770000
H        1.49230000       1.54520000      -0.16330000
H        0.18720000       1.62940000      -1.34670000
H       -0.14160000       1.98220000       0.35980000
H        0.64490000      -0.72850000      -0.84850000
H        1.84940000      -0.35910000       1.28590000
H       -1.85110000      -0.16350000       0.79520000
H       -1.67360000      -0.24220000      -2.26910000
H       -3.16840000      -0.20820000      -1.33410000
H       -2.09530000       1.19400000      -1.30110000
H       -1.69360000      -2.20680000       1.80720000
H       -1.84950000      -3.67790000       0.92630000
