19
Properties=species:S:1:pos:R:3 gdb_37063=T pbc="F F F"
C       -0.05380000       1.57730000      -0.02120000
C        1.45350000       1.96530000      -0.01980000
C        2.11170000       0.79020000      -0.70820000
C        3.53810000       0.27040000      -0.59330000
C        3.33150000      -1.23850000      -0.55600000
C        2.03900000      -1.58390000      -0.58690000
C        1.19520000      -0.35930000      -0.69480000
C       -0.10250000       0.02110000      -0.02250000
O        1.44170000       0.39410000      -1.91540000
H       -0.59490000       2.00940000       0.82430000
H       -0.51920000       1.95110000      -0.93520000
H        1.63250000       2.92470000      -0.51560000
H        1.84470000       2.04520000       1.00220000
H        4.16310000       0.57670000      -1.44030000
H        4.03200000       0.63650000       0.31610000
H        4.16390000      -1.93440000      -0.54840000
H        1.65160000      -2.59530000      -0.57370000
H       -0.10550000      -0.38020000       0.99830000
H       -0.99340000      -0.36290000      -0.52920000
