23
Properties=species:S:1:pos:R:3 gdb_86062=T pbc="F F F"
C       -0.00480000       1.56430000       0.01140000
C        0.12730000       0.04340000       0.00900000
C        0.93570000      -0.54990000      -1.16820000
C        1.58990000      -1.78320000      -0.57890000
C        2.26550000      -2.77430000      -1.47530000
C        1.47920000      -1.81120000       0.75840000
C        2.00830000      -2.81900000       1.73200000
C        0.79670000      -0.55960000       1.27500000
O        1.73610000       0.30450000       1.92850000
H        0.97360000       2.04810000       0.08760000
H       -0.48560000       1.91400000      -0.90840000
H       -0.60490000       1.91020000       0.85890000
H       -0.87750000      -0.39490000      -0.03800000
H        0.29930000      -0.78820000      -2.02990000
H        1.69520000       0.15240000      -1.54540000
H        3.04280000      -2.28890000      -2.07990000
H        2.73080000      -3.59460000      -0.92410000
H        1.55060000      -3.20880000      -2.18600000
H        2.62220000      -3.58860000       1.25770000
H        2.61280000      -2.32150000       2.49920000
H        1.18850000      -3.32320000       2.26030000
H        0.05420000      -0.76630000       2.05430000
H        2.50970000       0.36570000       1.35680000
