18
Properties=species:S:1:pos:R:3 gdb_69939=T pbc="F F F"
C       -0.05860000       1.53600000       0.00400000
C        0.08640000       0.03790000      -0.02180000
N       -0.76200000      -0.82080000       0.84940000
C        0.69470000      -0.78570000       1.08880000
C        1.52800000      -1.85770000       0.41540000
O        1.18200000      -3.28590000       0.35260000
C        1.19650000      -3.26540000      -1.10830000
C        1.13500000      -1.75930000      -1.02800000
C        0.32400000      -0.73910000      -1.29690000
H        0.81970000       2.02360000      -0.43170000
H       -0.93510000       1.85480000      -0.57230000
H       -0.17950000       1.90640000       1.02720000
H       -1.20320000      -0.23650000       1.55920000
H        1.05590000      -0.30750000       1.99320000
H        2.58960000      -1.75190000       0.67600000
H        2.12700000      -3.69790000      -1.49930000
H        0.33320000      -3.77830000      -1.54340000
H       -0.28810000      -0.60060000      -2.18080000
