14
Properties=species:S:1:pos:R:3 gdb_126130=T pbc="F F F"
C       -0.04700000       1.53160000       0.06980000
C        0.02390000       0.01070000      -0.03770000
C        0.73830000      -0.45910000      -1.28730000
O        1.20880000       0.27470000      -2.12140000
C        0.85180000      -1.94400000      -1.47000000
N        0.38860000      -2.84220000      -0.64450000
O        0.70420000      -4.02200000      -1.18650000
N        1.39620000      -3.78250000      -2.40650000
N        1.47300000      -2.54630000      -2.55540000
H        0.95370000       1.97030000       0.08800000
H       -0.57650000       1.96070000      -0.78440000
H       -0.57010000       1.82270000       0.98410000
H        0.53430000      -0.43450000       0.82670000
H       -0.97550000      -0.44420000      -0.03280000
