15
Properties=species:S:1:pos:R:3 gdb_24044=T pbc="F F F"
C        0.12020000      -0.98070000      -0.56620000
C        0.10320000       0.15590000      -0.17510000
C        0.09100000       1.54060000       0.30590000
N        1.40370000       2.17990000       0.25690000
C        1.77610000       2.66150000      -0.85370000
N        2.97170000       3.29560000      -1.11450000
C        3.00880000       3.69880000      -2.44630000
C        1.85110000       3.31670000      -2.99400000
O        1.07470000       2.67530000      -2.04300000
H        0.13500000      -1.98400000      -0.91250000
H       -0.66430000       2.10290000      -0.26430000
H       -0.23930000       1.54490000       1.35100000
H        3.68330000       3.41140000      -0.41670000
H        3.85110000       4.21540000      -2.87220000
H        1.43430000       3.40410000      -3.98090000
