19
Properties=species:S:1:pos:R:3 gdb_108105=T pbc="F F F"
C        0.14330000       1.52610000      -0.08130000
C       -0.08370000       0.02480000       0.13610000
C        0.71320000      -0.53120000       1.27520000
O        0.47740000       0.06030000       2.54950000
C        1.44290000      -0.66440000       3.29960000
C        1.06040000      -2.13770000       3.03790000
C        1.11100000      -1.98570000       1.52550000
C        2.17540000      -0.91130000       1.30460000
O        2.65760000      -0.50600000       2.57300000
H        1.19140000       1.73530000      -0.31790000
H       -0.47220000       1.89660000      -0.90630000
H       -0.11320000       2.08890000       0.81970000
H       -1.14810000      -0.17050000       0.31830000
H        0.18130000      -0.53450000      -0.76900000
H        1.53340000      -0.28120000       4.31220000
H        1.80250000      -2.83280000       3.43630000
H        0.06660000      -2.37640000       3.42230000
H        0.91560000      -2.78260000       0.82190000
H        2.88900000      -0.85130000       0.49610000
