17
Properties=species:S:1:pos:R:3 gdb_39977=T pbc="F F F"
C       -0.06460000       1.48310000       0.02090000
C        1.28290000       0.77600000       0.00220000
C       -0.00290000      -0.00340000      -0.04150000
O       -0.40110000      -0.73340000       1.11300000
C       -0.66380000      -2.05000000       0.68510000
C       -1.68950000      -2.24220000      -0.42350000
O       -1.89560000      -1.00460000      -1.10070000
C       -0.44050000      -0.84510000      -1.20750000
C       -0.21030000      -2.29930000      -0.72410000
H       -0.38840000       1.91400000       0.96120000
H       -0.38370000       2.02650000      -0.86200000
H        1.89450000       0.83920000      -0.89210000
H        1.83640000       0.73770000       0.93350000
H       -0.55720000      -2.79430000       1.46450000
H       -2.48120000      -2.98220000      -0.44870000
H       -0.12590000      -0.52470000      -2.20030000
H        0.46490000      -3.05160000      -1.10700000
