13
Properties=species:S:1:pos:R:3 gdb_11629=T pbc="F F F"
O       -0.04030000      -0.02830000      -0.14330000
C       -0.03730000       1.14730000       0.02480000
C       -0.96370000       2.37980000       0.05270000
C       -0.02410000       2.98460000       1.12750000
C        0.94430000       2.37410000       0.06730000
N       -0.00990000       2.98640000      -0.97520000
C        2.36480000       2.44650000      -0.02070000
C        3.56520000       2.46710000      -0.08710000
H       -2.04220000       2.47100000      -0.04300000
H       -0.01480000       4.07530000       1.12530000
H       -0.02460000       2.54380000       2.12420000
H        0.00240000       2.43950000      -1.84200000
H        4.62560000       2.48970000      -0.14690000
