19
Properties=species:S:1:pos:R:3 gdb_110117=T pbc="F F F"
C       -0.98570000       1.04850000       0.34590000
C        0.24690000       0.26140000      -0.08910000
N        0.78820000      -0.49400000       1.04580000
C        0.28840000      -1.81140000       1.40370000
C       -0.79360000      -2.56920000       0.65130000
O       -0.66730000      -3.96500000       0.85800000
C        1.66790000      -1.64240000       0.81120000
C        1.90230000      -2.14680000      -0.52080000
N        2.09380000      -2.56230000      -1.58430000
H       -0.75130000       1.69030000       1.19950000
H       -1.34210000       1.67630000      -0.47580000
H       -1.80320000       0.38130000       0.63740000
H        0.01360000      -0.36590000      -0.96040000
H        1.03860000       0.94990000      -0.40420000
H        0.26210000      -1.99090000       2.47750000
H       -1.77260000      -2.29080000       1.05490000
H       -0.79140000      -2.31800000      -0.41570000
H        0.08630000      -4.27000000       0.34080000
H        2.54290000      -1.69330000       1.45410000
