15
Properties=species:S:1:pos:R:3 gdb_98937=T pbc="F F F"
C       -0.14910000       1.25010000       0.20370000
O        0.04060000      -0.13900000      -0.08240000
C        0.67650000      -0.38750000      -1.25710000
O        1.06470000       0.44930000      -2.02260000
N        0.77880000      -1.76580000      -1.38050000
C        1.35530000      -2.49620000      -2.42070000
N        1.88860000      -1.95330000      -3.44290000
C        1.27230000      -3.91880000      -2.19560000
C        1.21610000      -5.10920000      -2.03210000
H        0.81180000       1.76650000       0.27050000
H       -0.75120000       1.72690000      -0.57390000
H       -0.66760000       1.28480000       1.16200000
H        0.38520000      -2.29700000      -0.62050000
H        2.24180000      -2.67710000      -4.06630000
H        1.17320000      -6.16290000      -1.89990000
