13
Properties=species:S:1:pos:R:3 gdb_25288=T pbc="F F F"
O       -0.14570000       0.02020000       0.00070000
C       -0.00970000       1.22390000       0.00800000
C        1.25390000       1.90340000      -0.00080000
C        2.30540000       2.50630000      -0.00780000
C        3.51750000       3.21440000      -0.01580000
N        4.74490000       2.70630000      -0.03330000
C        5.58620000       3.77560000      -0.03430000
C        4.87580000       4.95830000      -0.01730000
N        3.56320000       4.59030000      -0.00560000
H       -0.88440000       1.90640000       0.02270000
H        6.65800000       3.64900000      -0.04720000
H        5.18220000       5.99130000      -0.01270000
H        2.76440000       5.20340000       0.00800000
