25
Properties=species:S:1:pos:R:3 gdb_60045=T pbc="F F F"
C       -1.17280000       0.81200000       2.24620000
C       -0.92710000       0.53160000       0.75790000
C        0.36910000      -0.26830000       0.56420000
C       -2.15530000      -0.16290000       0.13480000
C       -2.10870000      -0.32060000      -1.37550000
O       -1.92090000       0.89270000      -2.07020000
C       -1.54510000      -1.56470000      -2.03010000
C       -3.03070000      -1.26120000      -2.10150000
C       -4.05430000      -2.13750000      -1.41470000
H       -0.32770000       1.34590000       2.69330000
H       -2.07170000       1.41920000       2.39500000
H       -1.30650000      -0.12290000       2.80410000
H       -0.81040000       1.50290000       0.25670000
H        0.29570000      -1.25120000       1.04540000
H        0.59590000      -0.43860000      -0.49240000
H        1.22170000       0.25470000       1.01030000
H       -2.28230000      -1.14560000       0.60420000
H       -3.04810000       0.42430000       0.38750000
H       -0.99710000       1.14790000      -1.97620000
H       -0.95490000      -1.43520000      -2.93100000
H       -1.22480000      -2.38160000      -1.39040000
H       -3.35430000      -0.85830000      -3.05730000
H       -3.67280000      -2.56210000      -0.48160000
H       -4.96700000      -1.57920000      -1.17770000
H       -4.33720000      -2.97570000      -2.06090000
