17
Properties=species:S:1:pos:R:3 gdb_128157=T pbc="F F F"
C       -0.34630000       1.29050000       0.14020000
N        0.24540000      -0.01480000      -0.12170000
C        0.72210000      -0.75660000       0.94680000
C        0.77430000      -2.13130000       1.10280000
O        0.22280000      -3.06340000       0.24700000
C        1.40890000      -2.34160000       2.35060000
N        1.73210000      -3.58230000       2.90160000
N        1.73330000      -1.19810000       2.93860000
N        1.29120000      -0.23570000       2.05980000
H        0.42340000       1.99510000       0.47470000
H       -0.75490000       1.68480000      -0.79280000
H       -1.14590000       1.27070000       0.89640000
H       -0.32300000      -0.60010000      -0.71940000
H        0.93630000      -3.50500000      -0.22790000
H        0.99550000      -4.26300000       2.76260000
H        1.95640000      -3.50090000       3.88550000
H        1.49650000       0.72590000       2.25680000
