19
Properties=species:S:1:pos:R:3 gdb_72023=T pbc="F F F"
C        0.03840000       1.48580000      -0.06100000
C       -0.02250000      -0.01560000      -0.03140000
O        0.77790000      -0.61520000      -1.04990000
C        0.70260000      -1.97370000      -0.58820000
C        1.37610000      -1.85060000       0.79520000
C        0.34050000      -0.83830000       1.30320000
C       -1.01280000      -1.56060000       1.15440000
C       -0.80270000      -2.16650000      -0.22670000
C       -1.36880000      -0.77320000      -0.08120000
H        1.06190000       1.83500000       0.10530000
H       -0.29910000       1.86380000      -1.03160000
H       -0.60420000       1.91010000       0.71580000
H        1.13000000      -2.64990000      -1.32600000
H        1.36850000      -2.77990000       1.37250000
H        2.39460000      -1.46280000       0.71310000
H        0.54620000      -0.26850000       2.20700000
H       -1.64390000      -1.97990000       1.92710000
H       -1.40430000      -2.98690000      -0.59220000
H       -2.32130000      -0.43850000      -0.47340000
