17
Properties=species:S:1:pos:R:3 gdb_108550=T pbc="F F F"
O        0.03450000       1.39530000       0.10730000
C        0.03010000      -0.01050000      -0.07080000
C       -1.36480000      -0.56260000      -0.00320000
O       -2.19650000      -0.00530000      -0.99810000
C       -3.47880000      -0.62500000      -0.74640000
C       -3.14960000      -1.51420000       0.43910000
C       -1.70610000      -2.07020000       0.22210000
O       -1.39930000      -1.94870000       1.64920000
C       -2.14920000      -0.72770000       1.33970000
H       -0.58530000       1.75360000      -0.53830000
H        0.49200000      -0.29920000      -1.02810000
H        0.61780000      -0.44720000       0.74060000
H       -4.22550000       0.14490000      -0.52010000
H       -3.80080000      -1.17830000      -1.63600000
H       -3.91170000      -2.14550000       0.89120000
H       -1.37380000      -2.96430000      -0.30540000
H       -2.33650000      -0.01630000       2.14280000
