23
Properties=species:S:1:pos:R:3 gdb_102588=T pbc="F F F"
C       -0.45300000       1.65630000      -0.50360000
C       -0.19400000       0.17620000      -0.20300000
C        0.78100000      -0.50870000      -1.17990000
C        2.24400000      -0.08560000      -0.94640000
O        3.09950000      -0.43860000      -2.01230000
C        0.63820000      -2.02490000      -1.06040000
C       -0.55120000      -2.70560000      -1.77670000
C        0.52870000      -3.42750000      -2.60680000
O        1.59040000      -2.76220000      -1.88700000
H        0.46400000       2.25130000      -0.45710000
H       -0.87980000       1.78530000      -1.50410000
H       -1.15790000       2.08270000       0.21680000
H        0.18990000       0.06680000       0.82060000
H       -1.15260000      -0.35890000      -0.22000000
H        0.52490000      -0.21940000      -2.20910000
H        2.30760000       1.00310000      -0.84710000
H        2.58820000      -0.51250000       0.01390000
H        2.92400000      -1.37100000      -2.20150000
H        0.76130000      -2.32310000      -0.00960000
H       -1.17060000      -3.35130000      -1.15320000
H       -1.19320000      -2.02470000      -2.33900000
H        0.58040000      -4.51490000      -2.48070000
H        0.55040000      -3.19130000      -3.67670000
