17
Properties=species:S:1:pos:R:3 gdb_73923=T pbc="F F F"
N        0.11040000       1.35710000       0.16520000
C        0.01020000       0.00030000       0.05650000
C       -1.10060000      -0.79580000       0.00670000
C       -0.72700000      -2.26760000       0.04420000
C        0.79480000      -2.25010000       0.00700000
N        1.35630000      -1.63360000      -1.21020000
C        1.24850000      -0.83230000       0.04370000
C       -2.46450000      -0.34740000      -0.09750000
O       -3.43930000      -1.07730000      -0.14560000
H        0.94520000       1.78880000      -0.19860000
H       -0.72520000       1.90870000       0.04770000
H       -1.09290000      -2.75350000       0.95690000
H       -1.15020000      -2.81890000      -0.80170000
H        1.36340000      -3.03090000       0.50030000
H        2.32470000      -1.93670000      -1.30530000
H        2.14970000      -0.49210000       0.54350000
H       -2.60180000       0.76190000      -0.13590000
