14
Properties=species:S:1:pos:R:3 gdb_125391=T pbc="F F F"
C       -0.01460000       1.52770000       0.03720000
C       -0.00690000       0.03280000       0.03220000
C       -0.03700000      -0.80200000      -1.05430000
O       -0.01980000      -2.14010000      -0.73420000
C        0.02340000      -2.15630000       0.62040000
C        0.03270000      -0.88920000       1.12600000
O        0.07530000      -0.92270000       2.46330000
N        0.09460000      -2.28670000       2.84680000
C        0.06350000      -3.00720000       1.74090000
H        0.88140000       1.92780000       0.52340000
H       -0.05070000       1.92050000      -0.98200000
H       -0.88020000       1.91850000       0.58240000
H       -0.07180000      -0.58750000      -2.11080000
H        0.07180000      -4.08350000       1.82340000
