19
Properties=species:S:1:pos:R:3 gdb_113050=T pbc="F F F"
O       -0.18450000       1.22210000       0.76910000
C       -0.05080000      -0.10130000       0.29530000
C       -1.37690000      -0.61110000      -0.24120000
C       -1.58140000      -2.13240000      -0.38470000
C       -2.70770000      -1.93940000       0.65390000
C       -2.59070000      -2.71340000       1.96890000
C       -3.60150000      -2.33090000       2.94630000
C       -4.44830000      -2.00810000       3.73510000
O       -2.39140000      -0.53490000       0.79710000
H       -0.93360000       1.21020000       1.37820000
H        0.70300000      -0.08880000      -0.50060000
H        0.30640000      -0.78130000       1.08720000
H       -1.68040000      -0.01840000      -1.11320000
H       -1.89220000      -2.48860000      -1.36690000
H       -0.73970000      -2.73470000      -0.03140000
H       -3.71870000      -2.06330000       0.24660000
H       -2.67680000      -3.78510000       1.74200000
H       -1.58690000      -2.55690000       2.38280000
H       -5.19060000      -1.72170000       4.43810000
