16
Properties=species:S:1:pos:R:3 gdb_50118=T pbc="F F F"
O       -0.64760000       0.79930000      -0.48100000
C        0.22130000       0.94860000       0.34100000
C        1.33740000       1.95850000       0.23320000
C        1.28150000       3.03480000      -0.86830000
C        1.22410000       4.07110000       0.26410000
C        0.09050000       3.77490000       1.16960000
N        1.32070000       2.98040000       1.36100000
C        1.97260000       5.28200000       0.29960000
C        2.60170000       6.30730000       0.28600000
H        0.24170000       0.35080000       1.27990000
H        2.29460000       1.42880000       0.28140000
H        2.19780000       3.09360000      -1.45490000
H        0.41710000       3.00570000      -1.53460000
H       -0.07790000       4.46630000       1.98820000
H       -0.80680000       3.30860000       0.76790000
H        3.15670000       7.21280000       0.28540000
