20
Properties=species:S:1:pos:R:3 gdb_54682=T pbc="F F F"
C        0.07570000       1.52780000       0.02180000
C        0.08430000       0.00330000      -0.00990000
O        1.15030000      -0.59740000      -0.04900000
C       -1.21550000      -0.68170000       0.01230000
C       -1.19950000      -2.04040000      -0.01960000
N       -2.30530000      -2.82480000      -0.00460000
C       -3.62280000      -2.24670000       0.21220000
C       -3.68330000      -0.86190000      -0.44120000
C       -2.54450000       0.04530000       0.05920000
H        1.10350000       1.88410000       0.09730000
H       -0.37730000       1.93340000      -0.89050000
H       -0.51020000       1.90940000       0.86550000
H       -0.24320000      -2.55000000      -0.07720000
H       -2.19170000      -3.81820000       0.09620000
H       -4.37580000      -2.91330000      -0.22010000
H       -3.83810000      -2.16180000       1.28870000
H       -3.59880000      -0.98550000      -1.52680000
H       -4.65830000      -0.40850000      -0.23900000
H       -2.77130000       0.39150000       1.07850000
H       -2.51800000       0.94940000      -0.55890000
