17
Properties=species:S:1:pos:R:3 gdb_14979=T pbc="F F F"
C       -0.08700000       1.38650000      -0.00290000
O        0.07200000      -0.01700000      -0.01690000
C        0.71210000      -0.55380000       1.12270000
C       -0.27920000      -0.77330000       2.27040000
O        0.35260000      -1.43740000       3.37270000
C        1.23620000      -2.41030000       3.03290000
N        1.70130000      -2.71360000       1.89860000
C        1.31040000      -1.90800000       0.74470000
H        0.87990000       1.90070000       0.10400000
H       -0.53160000       1.66650000      -0.96070000
H       -0.75210000       1.73020000       0.80250000
H        1.51270000       0.11940000       1.46810000
H       -0.67360000       0.16310000       2.67030000
H       -1.11790000      -1.38200000       1.90940000
H        1.53950000      -2.95580000       3.92450000
H        0.57760000      -2.46130000       0.14350000
H        2.18940000      -1.76820000       0.10740000
