14
Properties=species:S:1:pos:R:3 gdb_12217=T pbc="F F F"
O       -0.02020000       1.44170000       0.17930000
C        0.01540000       0.04480000       0.05670000
C       -1.38440000      -0.60570000      -0.08690000
N       -0.95190000      -1.13010000      -1.39690000
C       -1.64390000      -1.90840000      -2.31080000
N       -1.14190000      -2.27210000      -3.41700000
C        0.29860000      -0.49810000      -1.36720000
O        1.19210000      -0.38870000      -2.15380000
H        0.80300000       1.78620000      -0.18610000
H        0.64070000      -0.42970000       0.82540000
H       -1.63130000      -1.38020000       0.64370000
H       -2.18620000       0.13420000      -0.15280000
H       -2.64920000      -2.15320000      -1.94390000
H       -1.81300000      -2.83480000      -3.93740000
