16
Properties=species:S:1:pos:R:3 gdb_94482=T pbc="F F F"
O        0.54220000       0.87360000       0.53620000
C       -0.13590000      -0.23410000       0.00990000
C       -1.47290000       0.09980000      -0.71950000
N       -0.91200000      -0.58060000      -1.90350000
C        0.34760000      -0.70480000      -1.36230000
N        1.52670000      -0.99800000      -1.73120000
C        1.81780000      -1.34370000      -3.11320000
C        1.03060000      -0.63410000      -4.13810000
N        0.37280000      -0.06250000      -4.89870000
H        1.47870000       0.74260000       0.34390000
H       -0.23210000      -1.04620000       0.74270000
H       -2.38440000      -0.35950000      -0.32940000
H       -1.60450000       1.17840000      -0.84120000
H       -1.15920000      -0.44830000      -2.87400000
H        2.87630000      -1.14030000      -3.30880000
H        1.67980000      -2.42240000      -3.27560000
