25
Properties=species:S:1:pos:R:3 gdb_122020=T pbc="F F F"
C       -1.55490000       0.55740000       0.00460000
C       -0.09320000       0.14920000       0.07460000
O        0.26220000      -0.46880000      -1.14490000
C        1.60590000      -0.89150000      -1.18740000
C        1.87710000      -1.51870000      -2.55430000
C        1.68000000      -0.51740000      -3.69290000
O        3.20510000      -2.01350000      -2.47600000
C        3.55410000      -2.96560000      -3.46080000
C        4.93810000      -3.50290000      -3.13420000
H       -1.71880000       1.25910000      -0.81830000
H       -2.19010000      -0.31760000      -0.16030000
H       -1.86170000       1.03890000       0.93790000
H        0.54720000       1.02940000       0.25490000
H        0.07490000      -0.54580000       0.91490000
H        2.29320000      -0.04330000      -1.02880000
H        1.81380000      -1.63580000      -0.40280000
H        1.17560000      -2.35970000      -2.68430000
H        2.41590000       0.28990000      -3.61360000
H        1.78920000      -0.98940000      -4.67320000
H        0.67820000      -0.08580000      -3.62930000
H        2.81490000      -3.78460000      -3.47280000
H        3.55130000      -2.51500000      -4.46550000
H        5.67220000      -2.69200000      -3.12980000
H        4.94370000      -3.97390000      -2.14710000
H        5.24510000      -4.24490000      -3.87750000
