21
Properties=species:S:1:pos:R:3 gdb_53174=T pbc="F F F"
C        0.13800000       1.55780000      -0.01290000
C        0.07320000       0.10300000      -0.00940000
C        0.03110000      -1.10190000      -0.01060000
C       -0.04020000      -2.55230000      -0.00110000
C        0.36940000      -3.28960000       1.29210000
C       -0.55640000      -2.93170000       2.41560000
C       -1.01010000      -3.93690000       1.39160000
C       -1.46650000      -3.25540000       0.09430000
C       -2.72810000      -2.40530000       0.10170000
H        0.79320000       1.92950000       0.78310000
H        0.52600000       1.93890000      -0.96430000
H       -0.85170000       2.00250000       0.14110000
H        0.50140000      -2.95210000      -0.86370000
H        1.34730000      -3.72360000       1.46030000
H       -0.29240000      -3.35070000       3.38140000
H       -0.99350000      -1.93850000       2.46790000
H       -1.25820000      -4.95410000       1.67150000
H       -1.53080000      -3.99310000      -0.71150000
H       -2.70550000      -1.64930000       0.89120000
H       -2.85270000      -1.88100000      -0.85150000
H       -3.61160000      -3.03390000       0.25990000
