20
Properties=species:S:1:pos:R:3 gdb_127129=T pbc="F F F"
C        0.71050000       0.09210000      -0.87000000
N       -0.13770000       0.11730000       0.31540000
C       -0.13290000       1.41380000       0.97780000
C       -1.39800000      -0.47650000       0.18210000
N       -2.51100000       0.19840000       0.47180000
N       -3.50360000      -0.70450000       0.30620000
C       -3.04960000      -1.91710000      -0.08550000
C       -1.67710000      -1.83050000      -0.18030000
C       -0.71910000      -2.93350000      -0.50810000
H        1.73320000       0.36190000      -0.58700000
H        0.73440000      -0.90700000      -1.30630000
H        0.37350000       0.79870000      -1.64840000
H       -0.58300000       2.21110000       0.36460000
H       -0.69750000       1.35270000       1.90940000
H        0.90270000       1.68960000       1.20150000
H       -4.44950000      -0.42830000       0.49970000
H       -3.71680000      -2.74980000      -0.24900000
H       -0.34680000      -2.88480000      -1.53940000
H        0.15450000      -2.90130000       0.15200000
H       -1.19380000      -3.91150000      -0.38500000
