25
Properties=species:S:1:pos:R:3 gdb_103962=T pbc="F F F"
C       -1.45170000      -0.27660000      -0.02810000
C        0.01370000       0.17450000      -0.05850000
C        0.84820000      -0.45240000      -1.18710000
C        0.39970000       0.07550000      -2.55600000
C        2.41380000      -0.36360000      -1.07100000
C        2.50980000      -1.88320000      -1.27310000
C        1.81550000      -2.64270000      -0.17820000
C        1.88000000      -2.33480000       1.30550000
C        0.97620000      -1.99270000      -1.25190000
H       -1.99770000       0.03110000      -0.92520000
H       -1.52390000      -1.36700000       0.04800000
H       -1.97310000       0.15140000       0.83390000
H        0.05900000       1.26800000      -0.15770000
H        0.46830000      -0.05760000       0.90850000
H        0.49730000       1.16620000      -2.60370000
H        1.00780000      -0.35470000      -3.35830000
H       -0.64490000      -0.17810000      -2.76600000
H        2.86080000       0.21360000      -1.88380000
H        2.81120000       0.02010000      -0.12540000
H        3.21010000      -2.36510000      -1.94570000
H        1.86500000      -3.71560000      -0.36510000
H        2.06310000      -1.27950000       1.51580000
H        0.95310000      -2.62110000       1.81470000
H        2.69780000      -2.90040000       1.76630000
H        0.34580000      -2.60550000      -1.88940000
