19
Properties=species:S:1:pos:R:3 gdb_7980=T pbc="F F F"
C        0.62990000       1.34800000       0.07220000
C       -0.07640000       0.00620000      -0.08260000
C        0.40430000      -0.85090000      -1.27540000
C        1.34570000      -1.89910000      -0.64720000
C        2.84480000      -1.64450000      -0.86610000
C        0.98720000      -1.85270000       0.82860000
N        1.40260000      -2.67200000       1.69630000
O        0.16090000      -0.80160000       1.09120000
H        1.71650000       1.22190000       0.10430000
H        0.38480000       2.00330000      -0.77010000
H        0.31490000       1.84120000       0.99590000
H       -1.15790000       0.17040000      -0.12200000
H       -0.44900000      -1.33790000      -1.75450000
H        0.90210000      -0.24070000      -2.03330000
H        1.11590000      -2.90170000      -1.01690000
H        3.14080000      -0.64980000      -0.51690000
H        3.43150000      -2.38270000      -0.31420000
H        3.09590000      -1.71770000      -1.92880000
H        1.04590000      -2.42770000       2.62160000
