18
Properties=species:S:1:pos:R:3 gdb_112463=T pbc="F F F"
C        0.01280000       1.59030000       0.07830000
C        0.01750000       0.06180000       0.15610000
C       -1.37460000      -0.56380000      -0.01790000
O       -1.93780000      -0.14780000      -1.29470000
C       -1.79940000      -0.87620000      -2.42280000
O       -2.02910000      -0.40640000      -3.50680000
N       -1.42210000      -2.19570000      -2.24010000
C       -1.36610000      -2.80110000      -0.98610000
C       -1.36900000      -2.05800000       0.11710000
H        1.02440000       1.98920000       0.19660000
H       -0.37960000       1.93060000      -0.88310000
H       -0.61200000       2.02330000       0.86750000
H        0.68420000      -0.36300000      -0.60420000
H        0.40600000      -0.26980000       1.12740000
H       -2.05610000      -0.11470000       0.71420000
H       -1.44480000      -2.75050000      -3.07930000
H       -1.33360000      -3.88370000      -0.99130000
H       -1.33940000      -2.50250000       1.10250000
