18
Properties=species:S:1:pos:R:3 gdb_82951=T pbc="F F F"
O        0.07990000       1.39050000      -0.15690000
C       -0.03570000       0.00310000      -0.02690000
C       -0.46320000      -0.68380000       1.25650000
C       -1.20340000       0.11650000       2.33240000
N       -2.58520000       0.39680000       1.86420000
C       -2.71520000       1.42640000       0.82180000
C       -2.65740000      -0.01210000       0.44970000
C       -1.36640000      -0.69980000       0.03700000
O       -1.51090000      -1.88170000      -0.69270000
H        0.86290000       1.66630000       0.33290000
H        0.70380000      -0.55920000      -0.59980000
H        0.08440000      -1.57240000       1.55210000
H       -1.27040000      -0.48470000       3.24390000
H       -0.69600000       1.05250000       2.59560000
H       -3.67570000       1.93670000       0.82510000
H       -1.86070000       2.04610000       0.58320000
H       -3.54890000      -0.54780000       0.13310000
H       -1.62250000      -1.64710000      -1.62070000
