15
Properties=species:S:1:pos:R:3 gdb_2848=T pbc="F F F"
C        0.54080000       1.50520000       0.15870000
C        0.04070000       0.05590000       0.11590000
C        0.26950000      -0.56770000      -1.24130000
O        1.57890000      -1.01970000      -1.55970000
C        0.54060000      -2.00610000      -1.49560000
C        0.64550000      -2.99870000      -0.38460000
O        0.10450000      -4.07490000      -0.41070000
H        1.61590000       1.54950000      -0.03940000
H        0.03490000       2.12120000      -0.59260000
H        0.35570000       1.95340000       1.13870000
H        0.54190000      -0.53360000       0.88860000
H       -1.03420000       0.02180000       0.33320000
H       -0.21920000      -0.04190000      -2.06590000
H        0.22570000      -2.43080000      -2.44800000
H        1.27850000      -2.67210000       0.46810000
