20
Properties=species:S:1:pos:R:3 gdb_40587=T pbc="F F F"
C       -0.24260000       1.43220000      -0.21330000
C        1.21520000       1.28570000       0.14130000
C        0.34130000       0.05960000       0.02350000
C       -0.03560000      -0.71310000       1.25430000
C       -1.07870000      -1.83970000       1.16770000
C       -0.08610000      -2.88650000       0.57130000
C       -0.45520000      -3.84770000       1.69340000
N       -0.50510000      -2.51910000       2.44260000
C        0.70160000      -2.01730000       1.60130000
H       -0.91030000       1.83300000       0.54240000
H       -0.50130000       1.71360000      -1.22810000
H        1.95490000       1.46690000      -0.63060000
H        1.52800000       1.58810000       1.13540000
H        0.49650000      -0.54720000      -0.86500000
H       -0.18040000      -0.05380000       2.11890000
H       -2.15860000      -1.78650000       1.01300000
H        0.15090000      -3.07860000      -0.48030000
H       -1.42400000      -4.35640000       1.64320000
H        0.31600000      -4.52990000       2.06700000
H        1.72210000      -2.17360000       1.95810000
