15
Properties=species:S:1:pos:R:3 gdb_16589=T pbc="F F F"
C       -0.13040000       1.52450000       0.02360000
N        0.10280000       0.08640000      -0.10540000
C        0.67100000      -0.53810000      -1.25640000
C        1.40530000      -0.52830000       0.10230000
C        2.50770000       0.23780000      -0.57780000
O        3.67420000       0.40500000      -0.34740000
C        1.73590000       0.34480000      -1.93180000
O        2.44430000      -0.32770000      -2.94540000
H        0.67440000       2.17180000      -0.34600000
H       -1.05020000       1.77170000      -0.51430000
H       -0.28620000       1.74540000       1.08290000
H        0.18460000      -1.38840000      -1.72040000
H        1.51620000      -1.29280000       0.86370000
H        1.39070000       1.33100000      -2.26520000
H        3.37580000      -0.09490000      -2.84480000
