12
Properties=species:S:1:pos:R:3 gdb_4655=T pbc="F F F"
N        0.04620000       1.33860000       0.14580000
C       -0.04910000      -0.02370000       0.04760000
N       -1.11970000      -0.75170000       0.03590000
C       -0.62520000      -2.06620000       0.00680000
C        0.73170000      -2.03020000      -0.00400000
O        1.11960000      -0.71060000       0.02350000
C       -1.46370000      -3.20420000      -0.01120000
C       -2.17330000      -4.17600000      -0.02740000
H        0.87050000       1.74180000      -0.27430000
H       -0.81030000       1.81450000      -0.09490000
H        1.51330000      -2.76740000      -0.03240000
H       -2.80220000      -5.03130000      -0.04070000
