23
Properties=species:S:1:pos:R:3 gdb_101734=T pbc="F F F"
C       -0.02080000       1.57900000      -0.10330000
C       -0.00100000       0.04510000      -0.03570000
C        0.68970000      -0.55860000      -1.26960000
O        0.06930000      -0.21620000      -2.49800000
C        0.67490000      -0.48270000       1.24280000
C       -0.10430000      -0.25600000       2.52810000
C        0.55300000      -0.68520000       3.86000000
C        0.30510000       0.77350000       4.28870000
O       -0.14260000       1.12920000       2.96500000
H        1.00000000       1.97900000      -0.15830000
H       -0.57160000       1.92430000      -0.98490000
H       -0.49240000       2.01120000       0.78050000
H       -1.03990000      -0.31450000      -0.04750000
H        1.75590000      -0.27360000      -1.26930000
H        0.64920000      -1.65230000      -1.21620000
H        0.21850000       0.72090000      -2.65390000
H        0.82080000      -1.56930000       1.15080000
H        1.67390000      -0.03980000       1.35430000
H       -1.12890000      -0.64110000       2.41230000
H        0.03980000      -1.46000000       4.43130000
H        1.60820000      -0.94960000       3.75970000
H       -0.48830000       0.90500000       5.03630000
H        1.18050000       1.35660000       4.59650000
