10
Properties=species:S:1:pos:R:3 gdb_829=T pbc="F F F"
N       -0.04180000       1.48950000       0.02470000
C       -0.02390000       0.03500000       0.00340000
C        0.82220000      -0.48860000       1.15210000
F        0.32410000      -0.16720000       2.34780000
F        0.91340000      -1.82730000       1.09240000
F        2.07290000       0.00520000       1.08710000
H        0.87140000       1.85160000      -0.22870000
H       -0.70380000       1.84020000      -0.65770000
H       -1.03890000      -0.34450000       0.15260000
H        0.37440000      -0.42840000      -0.91340000
