17
Properties=species:S:1:pos:R:3 gdb_45210=T pbc="F F F"
N       -0.07430000       1.29690000      -0.30850000
C       -0.03580000       0.06330000      -0.04720000
O        1.11390000      -0.63800000       0.22720000
C        0.83360000      -2.01900000       0.47330000
C        0.39250000      -2.34910000       1.92100000
N       -1.04790000      -2.48100000       1.51590000
C       -1.73560000      -1.14700000       1.47180000
C       -1.22870000      -0.85660000       0.02240000
C       -0.63490000      -2.27820000       0.06570000
H        0.86310000       1.70170000      -0.27750000
H        1.64220000      -2.60770000       0.03920000
H        0.77620000      -3.30930000       2.27830000
H        0.60180000      -1.57790000       2.66850000
H       -2.81980000      -1.27720000       1.51770000
H       -1.43170000      -0.44020000       2.24980000
H       -1.98500000      -0.59580000      -0.71450000
H       -0.89250000      -3.03430000      -0.67560000
