23
Properties=species:S:1:pos:R:3 gdb_87844=T pbc="F F F"
C       -0.09370000       1.50580000      -0.02370000
C        0.00640000      -0.00210000       0.04510000
C        1.33700000      -0.69610000      -0.17390000
C        0.69240000      -0.70620000       1.18470000
C        1.28270000      -0.00440000       2.43090000
C        0.92270000      -1.07540000       3.48380000
C        1.31590000      -2.39560000       2.75590000
C        0.14250000      -1.98290000       1.81790000
C       -0.54580000      -1.42670000       3.09980000
H        0.80630000       1.98460000       0.37530000
H       -0.21520000       1.84510000      -1.05850000
H       -0.94920000       1.88040000       0.55050000
H       -0.85840000      -0.52160000      -0.36440000
H        1.35500000      -1.61760000      -0.74840000
H        2.21140000      -0.06720000      -0.31880000
H        2.36260000       0.15950000       2.35620000
H        0.80820000       0.95880000       2.64550000
H        1.21630000      -0.87600000       4.51500000
H        2.31760000      -2.46960000       2.32240000
H        1.09060000      -3.28560000       3.34860000
H       -0.35040000      -2.69330000       1.15220000
H       -0.96670000      -2.21460000       3.72910000
H       -1.26220000      -0.60760000       2.98560000
