13
Properties=species:S:1:pos:R:3 gdb_129255=T pbc="F F F"
N       -0.12040000       1.29820000       0.00970000
C       -0.03390000       0.04960000       0.00290000
O        1.09080000      -0.72930000      -0.00650000
C        0.76800000      -2.14300000      -0.01200000
C       -0.72400000      -2.14880000      -0.00490000
C       -1.89690000      -2.85320000      -0.00270000
N       -2.92700000      -1.94350000       0.00590000
N       -2.46280000      -0.72830000       0.01110000
N       -1.11730000      -0.85400000       0.00360000
H        0.80180000       1.72970000       0.00750000
H        1.20650000      -2.59560000      -0.90690000
H        1.21500000      -2.60450000       0.87410000
H       -2.08290000      -3.91380000      -0.00720000
