15
Properties=species:S:1:pos:R:3 gdb_3652=T pbc="F F F"
C        0.00060000       1.51240000       0.10880000
C        0.00340000       0.02620000      -0.03940000
C       -0.00250000      -0.78950000      -1.16070000
C       -0.01790000      -0.37720000      -2.60120000
C        0.02510000      -2.10220000      -0.63360000
N        0.04550000      -2.11880000       0.69500000
N        0.03580000      -0.81410000       1.02970000
H        1.01370000       1.91920000       0.21580000
H       -0.44720000       1.98270000      -0.77050000
H       -0.57620000       1.82900000       0.98440000
H        0.99000000      -0.19080000      -2.99230000
H       -0.46680000      -1.15580000      -3.22520000
H       -0.59680000       0.53970000      -2.75590000
H        0.02310000      -3.03490000      -1.18060000
H        0.03120000      -0.56120000       2.00350000
