14
Properties=species:S:1:pos:R:3 gdb_10476=T pbc="F F F"
C       -0.00460000       1.44690000      -0.00680000
C        0.01330000      -0.00720000       0.01570000
C        0.03600000      -1.21110000       0.03390000
C        0.05650000      -2.64990000       0.03260000
C       -0.52640000      -3.38980000       1.20930000
N       -1.22570000      -3.40420000      -0.06790000
C        1.16120000      -3.25920000      -0.68610000
N        2.05740000      -3.73690000      -1.23690000
H        0.96300000       1.83920000      -0.33710000
H       -0.76960000       1.82450000      -0.69350000
H       -0.21040000       1.85810000       0.98720000
H       -0.07970000      -4.33580000       1.49900000
H       -0.89870000      -2.77330000       2.02180000
H       -1.98530000      -2.72710000      -0.06860000
