17
Properties=species:S:1:pos:R:3 gdb_11720=T pbc="F F F"
C       -0.23580000       1.54050000       0.06520000
C        0.09840000       0.06200000      -0.00960000
C        1.18750000      -0.45110000      -0.99360000
C        1.88590000      -1.04370000       0.22210000
C        2.15680000       0.00300000       1.24210000
N        0.80250000      -0.53430000       1.20210000
C        2.39430000      -2.42120000       0.34300000
O        2.58340000      -3.15690000      -0.59570000
H        0.65530000       2.16950000       0.15210000
H       -0.76810000       1.84780000      -0.84120000
H       -0.88270000       1.74390000       0.92460000
H       -0.82420000      -0.51180000      -0.12670000
H        0.83110000      -1.20930000      -1.69110000
H        1.75670000       0.30170000      -1.54610000
H        2.69620000      -0.29180000       2.13780000
H        2.37020000       1.01210000       0.89830000
H        2.58330000      -2.74320000       1.39190000
