16
Properties=species:S:1:pos:R:3 gdb_71148=T pbc="F F F"
C        0.07650000       1.47490000      -0.11640000
C       -0.03210000      -0.01670000       0.03380000
C       -1.33020000      -0.71220000       0.51100000
N       -0.54700000      -1.66330000       1.36930000
C        0.63840000      -2.14790000       0.57280000
C        0.66310000      -0.80490000       1.18210000
C        0.66890000      -1.97300000      -0.91930000
O        0.94720000      -2.77280000      -1.76350000
O        0.36850000      -0.66620000      -1.19270000
H        1.10580000       1.76180000      -0.35080000
H       -0.56980000       1.82600000      -0.92590000
H       -0.22350000       1.97280000       0.80990000
H       -1.93360000      -0.08760000       1.17360000
H       -1.95650000      -1.16780000      -0.26180000
H        1.12290000      -3.01280000       1.00430000
H        1.29730000      -0.45750000       1.98880000
