20
Properties=species:S:1:pos:R:3 gdb_93402=T pbc="F F F"
C       -0.00570000       1.58630000      -0.02280000
C        0.03080000       0.04960000       0.02050000
C        0.66990000      -0.51630000      -1.25730000
C        0.79760000      -2.03890000      -1.20870000
C        1.55160000      -2.51470000       0.03210000
O        2.18710000      -3.55700000       0.02420000
C        1.43740000      -1.67180000       1.21100000
C        0.72910000      -0.51220000       1.25100000
N        0.53180000       0.16830000       2.42520000
H        1.00210000       2.01250000       0.02980000
H       -0.45580000       1.91690000      -0.96340000
H       -0.60980000       2.01910000       0.78160000
H       -1.01070000      -0.30480000       0.06620000
H        0.07510000      -0.20600000      -2.12380000
H        1.66510000      -0.06940000      -1.38080000
H       -0.20170000      -2.49720000      -1.18460000
H        1.30610000      -2.43780000      -2.09010000
H        1.93050000      -2.04080000       2.10680000
H        1.07400000      -0.12490000       3.22330000
H        0.34900000       1.15660000       2.38500000
