23
Properties=species:S:1:pos:R:3 gdb_109669=T pbc="F F F"
C        0.13250000       1.27980000      -0.62410000
C       -0.00660000      -0.12930000      -0.03010000
C       -1.45010000      -0.58820000       0.13240000
C       -2.33700000       0.33260000       0.95430000
C       -2.10240000      -1.31990000      -1.03230000
O       -1.40740000      -1.55880000      -2.21910000
C       -1.78730000      -2.07740000       0.23750000
C       -0.81510000      -3.24520000       0.30760000
O        0.17110000      -3.30240000      -0.73280000
H        1.18640000       1.52650000      -0.78640000
H       -0.38040000       1.33820000      -1.58890000
H       -0.28620000       2.04730000       0.03300000
H        0.51700000      -0.81480000      -0.70100000
H        0.50750000      -0.17240000       0.94040000
H       -2.40250000       1.33390000       0.51670000
H       -3.35660000      -0.06040000       1.01940000
H       -1.96030000       0.43970000       1.97950000
H       -3.14680000      -1.08930000      -1.23450000
H       -0.77350000      -2.26970000      -2.04650000
H       -2.64850000      -2.28660000       0.87100000
H       -0.32470000      -3.27940000       1.29050000
H       -1.38740000      -4.17390000       0.20550000
H        0.91760000      -2.75670000      -0.46950000
