16
Properties=species:S:1:pos:R:3 gdb_72327=T pbc="F F F"
O       -0.02730000       1.39560000       0.11960000
C        0.07420000       0.02980000      -0.10470000
C        1.41240000      -0.67850000       0.17530000
N        1.17430000      -2.06520000      -0.27450000
C        0.12480000      -2.01840000      -0.99090000
O       -0.88580000      -2.94300000      -0.85490000
C       -1.61530000      -2.20620000       0.19000000
C       -1.31850000      -0.69430000      -0.05750000
C       -0.48860000      -0.65930000      -1.30350000
H        0.61270000       1.84550000      -0.44420000
H        2.22940000      -0.16500000      -0.35410000
H        1.68470000      -0.72050000       1.23550000
H       -2.67940000      -2.41390000       0.05260000
H       -1.27530000      -2.57030000       1.16370000
H       -2.13460000       0.00470000       0.09070000
H       -0.73800000      -0.28510000      -2.28780000
