17
Properties=species:S:1:pos:R:3 gdb_53475=T pbc="F F F"
C        0.25650000       1.53400000      -0.00940000
C        0.12330000       0.08500000       0.00310000
C        0.00520000      -1.11180000       0.01380000
C       -0.14660000      -2.55550000       0.02510000
C       -1.60490000      -3.04780000       0.03560000
O       -2.54600000      -2.32890000       0.22350000
C       -1.73790000      -4.56180000      -0.22260000
C       -3.05600000      -5.10630000       0.04830000
C       -4.14300000      -5.56280000       0.27380000
H        0.85880000       1.88640000       0.83510000
H        0.73820000       1.88270000      -0.92950000
H       -0.72380000       2.01820000       0.05670000
H        0.36660000      -3.01710000      -0.83030000
H        0.33570000      -2.99270000       0.91290000
H       -1.46210000      -4.72750000      -1.27450000
H       -0.96940000      -5.08650000       0.36100000
H       -5.10730000      -5.95830000       0.47640000
