10
Properties=species:S:1:pos:R:3 gdb_91=T pbc="F F F"
O        0.03180000      -0.03460000       0.00850000
C       -0.02440000       1.16440000       0.02160000
C       -1.14540000       2.23710000       0.03010000
C        0.00930000       3.27950000       0.04560000
N        0.93840000       2.14650000       0.03550000
H       -1.77030000       2.23780000      -0.86430000
H       -1.77630000       2.21770000       0.92010000
H        0.07170000       3.91860000      -0.84070000
H        0.06620000       3.89830000       0.94660000
H        1.94620000       2.09540000       0.03860000
