13
Properties=species:S:1:pos:R:3 gdb_20000=T pbc="F F F"
N        0.08650000      -1.15070000       0.39060000
C        0.14590000      -0.00590000       0.24700000
C        0.09820000       1.42130000       0.01420000
O        0.66620000       2.28250000       1.00410000
C        1.29800000       2.24350000      -0.26670000
C        2.69060000       1.69620000      -0.32770000
C        3.60140000       1.85120000       0.81710000
O        2.99120000       0.59560000       0.51210000
H       -0.85830000       1.75850000      -0.38290000
H        1.13870000       3.13010000      -0.88410000
H        3.10680000       1.64480000      -1.33470000
H        4.67430000       1.90440000       0.64450000
H        3.23220000       2.33370000       1.71890000
