15
Properties=species:S:1:pos:R:3 gdb_130981=T pbc="F F F"
O        0.81460000       1.02320000       1.26250000
C        0.53040000       1.68990000       0.30380000
C        1.15640000       1.51160000      -1.07750000
N        1.25190000       2.77100000      -1.78590000
C        2.30320000       3.62110000      -1.48710000
N        2.68780000       4.58150000      -2.33050000
N        3.67560000       5.18230000      -1.66120000
N        3.96800000       4.69830000      -0.47140000
C        3.10480000       3.68980000      -0.32520000
H       -0.23410000       2.49840000       0.34220000
H        2.11420000       0.98370000      -0.96460000
H        0.48030000       0.85420000      -1.63810000
H        1.04020000       2.74030000      -2.77130000
H        4.17310000       5.96400000      -2.05360000
H        3.09670000       3.08690000       0.56780000
