17
Properties=species:S:1:pos:R:3 gdb_98559=T pbc="F F F"
O       -0.52860000       1.49650000       0.73080000
C       -0.69030000       0.11920000       0.89520000
C       -0.92110000      -0.56070000      -0.44590000
O       -0.84050000       0.08180000      -1.47570000
C       -1.23590000      -2.00250000      -0.46280000
C       -1.28780000      -2.96820000      -1.65230000
C       -2.44850000      -3.73710000      -0.92960000
C       -2.34180000      -2.73440000       0.22600000
O       -1.01610000      -2.77290000       0.73010000
H       -0.51190000       1.63790000      -0.22950000
H        0.19450000      -0.35020000       1.35640000
H       -1.53250000      -0.10460000       1.56740000
H       -1.61140000      -2.47200000      -2.56760000
H       -0.36320000      -3.51890000      -1.83380000
H       -3.39600000      -3.66850000      -1.46740000
H       -2.25910000      -4.77500000      -0.64860000
H       -3.11380000      -2.35630000       0.88720000
