19
Properties=species:S:1:pos:R:3 gdb_81618=T pbc="F F F"
C       -0.21300000       1.55990000      -0.00010000
C       -0.00640000       0.05430000      -0.05360000
C        1.17770000      -0.58920000      -0.86080000
C        2.13660000      -0.14130000       0.28180000
C        0.87550000      -0.69710000       1.00720000
C        0.96470000      -1.86420000      -0.00730000
O       -0.21760000      -2.61840000      -0.24200000
C       -0.12470000      -3.95870000      -0.30450000
O       -1.06850000      -4.66430000      -0.49780000
H        0.70140000       2.13010000       0.18080000
H       -0.64190000       1.91480000      -0.94350000
H       -0.92310000       1.81450000       0.79430000
H       -0.96290000      -0.43830000      -0.23670000
H        1.35770000      -0.54470000      -1.93560000
H        3.06320000      -0.71110000       0.39880000
H        2.32670000       0.92560000       0.37410000
H        0.70780000      -0.77660000       2.08210000
H        1.82480000      -2.53460000       0.09320000
H        0.90980000      -4.32600000      -0.15840000
