20
Properties=species:S:1:pos:R:3 gdb_126141=T pbc="F F F"
C       -0.15270000       1.61240000       0.30360000
C       -0.14990000       0.08170000       0.26710000
C       -1.48030000      -0.54940000      -0.21690000
C       -1.80590000      -0.18840000      -1.67360000
C       -1.45500000      -2.03990000      -0.03170000
C       -1.34120000      -3.10780000      -0.89520000
N       -1.34650000      -4.27070000      -0.18270000
N       -1.45880000      -3.99330000       1.08210000
N       -1.52280000      -2.64880000       1.18090000
H        0.78570000       1.98860000       0.72180000
H       -0.26360000       2.04790000      -0.69370000
H       -0.96990000       1.99350000       0.92660000
H        0.66100000      -0.27940000      -0.37770000
H        0.07370000      -0.29890000       1.27130000
H       -2.28370000      -0.14690000       0.41810000
H       -2.73500000      -0.66550000      -1.99730000
H       -1.92270000       0.89100000      -1.79330000
H       -1.00480000      -0.51560000      -2.34520000
H       -1.26120000      -3.10860000      -1.96970000
H       -1.62270000      -2.22960000       2.09180000
