20
Properties=species:S:1:pos:R:3 gdb_90865=T pbc="F F F"
C        0.19560000       1.63020000       0.05410000
C       -0.04910000       0.12930000      -0.00410000
C        0.51630000      -0.50160000      -1.30180000
C        1.05620000      -1.91850000      -1.17800000
C        1.52130000      -2.43340000       0.12000000
C        0.58910000      -1.83540000       1.17830000
C       -0.54640000      -2.64160000       0.48100000
N        0.36810000      -3.10690000      -0.61330000
O        0.52220000      -0.42540000       1.17970000
H        1.26970000       1.84070000       0.05410000
H       -0.25840000       2.12580000      -0.80970000
H       -0.23770000       2.05210000       0.96500000
H       -1.13520000      -0.04130000       0.02450000
H       -0.24590000      -0.44470000      -2.08820000
H        1.36170000       0.10680000      -1.64880000
H        1.64250000      -2.22600000      -2.04060000
H        2.47590000      -2.92000000       0.28830000
H        0.78990000      -2.13420000       2.20780000
H       -0.84800000      -3.50710000       1.07520000
H       -1.44450000      -2.11850000       0.14450000
