18
Properties=species:S:1:pos:R:3 gdb_54701=T pbc="F F F"
N       -0.01390000       1.35330000      -0.15550000
C        0.11150000       0.04290000       0.22100000
O        1.17870000      -0.43220000       0.56300000
C       -1.18290000      -0.75280000       0.18070000
C       -1.14450000      -2.27560000       0.16290000
C       -1.07900000      -2.77540000       1.61240000
C       -1.05120000      -1.55190000       2.52250000
C       -2.02570000      -0.90870000       1.49650000
C       -2.39770000      -2.36770000       1.00520000
H        0.78460000       1.95690000      -0.04320000
H       -0.90890000       1.77250000      -0.33700000
H       -1.83740000      -0.38420000      -0.61720000
H       -0.84660000      -2.91390000      -0.65830000
H       -0.72740000      -3.77690000       1.82350000
H       -1.56360000      -1.75210000       3.46780000
H       -0.09470000      -1.05470000       2.70380000
H       -2.72170000      -0.12600000       1.79230000
H       -3.33460000      -2.88340000       0.85600000
