17
Properties=species:S:1:pos:R:3 gdb_7996=T pbc="F F F"
C        0.85380000       1.24120000      -0.15170000
N       -0.02740000       0.08450000       0.02960000
C        0.05270000      -0.88350000      -1.08580000
C        1.19500000      -1.85720000      -0.77570000
O        2.41060000      -1.40310000      -1.35630000
C        1.31940000      -1.75280000       0.76310000
O        2.13580000      -2.34380000       1.42190000
C        0.30830000      -0.69680000       1.22240000
H        1.92110000       0.98560000      -0.24740000
H        0.55300000       1.77740000      -1.05660000
H        0.73020000       1.92260000       0.69560000
H       -0.89220000      -1.43880000      -1.13930000
H        0.20250000      -0.37030000      -2.03720000
H        0.97290000      -2.89110000      -1.07680000
H        3.12660000      -1.85920000      -0.89510000
H        0.69900000      -0.08280000       2.03620000
H       -0.58370000      -1.22140000       1.59910000
