14
Properties=species:S:1:pos:R:3 gdb_56387=T pbc="F F F"
C       -0.04360000       1.50600000       0.01720000
C        0.06780000      -0.00120000       0.04500000
O        1.12000000      -0.59900000       0.06890000
C       -1.19930000      -0.72400000       0.04430000
C       -2.24200000      -1.32990000       0.04770000
C       -3.47840000      -2.11810000       0.05920000
O       -3.26670000      -3.50890000      -0.04850000
C       -4.27870000      -1.77570000       1.26200000
N       -4.90340000      -1.53270000       2.20230000
H        0.95470000       1.94520000       0.02190000
H       -0.59160000       1.82580000      -0.87580000
H       -0.61370000       1.85620000       0.88460000
H       -4.08040000      -1.84910000      -0.81820000
H       -2.65370000      -3.77710000       0.64710000
