20
Properties=species:S:1:pos:R:3 gdb_111879=T pbc="F F F"
C       -0.00720000       1.18620000       0.39300000
O       -0.23100000       0.15740000      -0.55800000
C       -1.39670000      -0.54760000      -0.30610000
C       -1.42530000      -2.01480000      -0.71560000
N       -0.24500000      -2.62200000      -1.27090000
C        0.51270000      -3.38170000      -0.28280000
C        0.90550000      -2.42790000       0.83620000
O       -0.23240000      -1.88790000       1.51310000
C       -1.37660000      -1.63970000       0.75080000
H        0.92740000       1.67900000       0.11340000
H       -0.81800000       1.93040000       0.37720000
H        0.08120000       0.77930000       1.40760000
H       -2.31950000       0.02660000      -0.42180000
H       -2.37820000      -2.38340000      -1.09100000
H       -0.46750000      -3.17080000      -2.08860000
H       -0.04350000      -4.23540000       0.14550000
H        1.42180000      -3.77220000      -0.75230000
H        1.48620000      -2.94620000       1.60540000
H        1.50850000      -1.61620000       0.41200000
H       -2.26690000      -1.78940000       1.35520000
