11
Properties=species:S:1:pos:R:3 gdb_21616=T pbc="F F F"
N        0.02170000       1.36120000       0.14360000
C       -0.03590000      -0.00630000       0.03800000
N       -1.13290000      -0.73980000       0.04890000
C       -0.63570000      -2.01340000       0.00000000
N        0.68300000      -2.11750000      -0.04800000
N        1.05540000      -0.81110000      -0.01950000
C       -1.47490000      -3.16750000      -0.00850000
N       -2.16400000      -4.09550000      -0.01590000
H        0.75080000       1.81960000      -0.38350000
H       -0.88240000       1.79200000       0.01000000
H        2.03380000      -0.57450000      -0.00050000
