15
Properties=species:S:1:pos:R:3 gdb_33682=T pbc="F F F"
N       -0.05950000      -1.15120000      -0.02160000
C       -0.04130000       0.00600000       0.01260000
C       -0.01120000       1.42210000       0.04400000
C       -0.99380000       2.37650000       0.69790000
N       -0.30610000       3.24160000       1.63680000
C        1.14930000       3.07960000       1.37920000
C        1.20210000       2.39230000       0.02460000
O        0.52430000       3.26030000      -0.94280000
C       -0.67140000       2.51240000      -0.78160000
H       -1.97000000       1.99490000       0.97660000
H       -0.57360000       4.20570000       1.46930000
H        1.65580000       4.04800000       1.36510000
H        1.61340000       2.45350000       2.15300000
H        2.16270000       2.03420000      -0.34400000
H       -1.36990000       2.45340000      -1.60790000
