16
Properties=species:S:1:pos:R:3 gdb_60766=T pbc="F F F"
C       -0.02980000       1.46980000      -0.11140000
N       -0.00820000       0.00560000      -0.02630000
C       -0.00320000      -0.62650000       1.22030000
N       -0.01710000       0.03890000       2.30060000
C        0.00820000      -0.79490000      -1.14540000
O        0.02690000      -2.00170000      -1.15410000
O        0.00010000      -0.01010000      -2.26910000
C        0.01520000      -0.65080000      -3.48510000
N        0.00790000       0.06290000      -4.51910000
H        0.85350000       1.83580000      -0.63800000
H       -0.92140000       1.80950000      -0.64170000
H       -0.03750000       1.84360000       0.91050000
H        0.01360000      -1.71150000       1.11740000
H       -0.01050000      -0.59130000       3.09960000
H        0.03220000      -1.73600000      -3.38820000
H        0.02070000      -0.53060000      -5.34720000
