23
Properties=species:S:1:pos:R:3 gdb_115270=T pbc="F F F"
C       -0.32870000       1.61950000       0.12710000
C        0.09160000       0.14900000       0.06000000
C       -1.11850000      -0.74570000      -0.25740000
C        1.21280000      -0.09860000      -0.96580000
O        1.82500000      -1.32200000      -0.57650000
C        1.78150000      -1.42380000       0.86190000
C        3.20500000      -1.27780000       1.39370000
O        4.07150000      -2.22060000       0.80020000
C        0.80560000      -0.33480000       1.34850000
H        0.52560000       2.27010000       0.34330000
H       -0.77090000       1.94790000      -0.82030000
H       -1.07780000       1.77840000       0.91000000
H       -1.59710000      -0.43670000      -1.19300000
H       -0.81820000      -1.79210000      -0.36450000
H       -1.86920000      -0.68560000       0.53770000
H        0.84990000      -0.21790000      -1.99160000
H        1.93860000       0.73080000      -0.95170000
H        1.42610000      -2.43560000       1.09020000
H        3.54930000      -0.24380000       1.21570000
H        3.22460000      -1.45050000       2.47600000
H        3.89370000      -2.16800000      -0.14740000
H        1.36030000       0.49430000       1.80370000
H        0.10440000      -0.71110000       2.09750000
