25
Properties=species:S:1:pos:R:3 gdb_113929=T pbc="F F F"
C        0.10900000       1.25740000      -0.00560000
C       -0.08290000      -0.19370000       0.44930000
C       -1.49330000      -0.69970000       0.23070000
C       -1.91770000      -1.15620000      -1.15580000
C       -1.77380000      -2.16020000      -0.05540000
O       -0.73050000      -3.07770000      -0.18620000
C       -0.59530000      -4.00250000       0.89340000
C        0.36910000      -5.07840000       0.40820000
C       -0.12010000      -3.33880000       2.18790000
H        1.13640000       1.59440000       0.16610000
H       -0.10800000       1.36670000      -1.07330000
H       -0.55870000       1.93570000       0.53740000
H        0.61380000      -0.85010000      -0.08270000
H        0.17330000      -0.27810000       1.51360000
H       -2.25490000      -0.18320000       0.81210000
H       -2.90880000      -0.91730000      -1.52510000
H       -1.14440000      -1.17770000      -1.91740000
H       -2.68520000      -2.59060000       0.36220000
H       -1.58150000      -4.46210000       1.07750000
H        1.35350000      -4.64290000       0.20890000
H        0.48430000      -5.86240000       1.16240000
H        0.00210000      -5.53150000      -0.51630000
H       -0.03720000      -4.08430000       2.98560000
H        0.86180000      -2.87710000       2.04370000
H       -0.81880000      -2.56660000       2.52070000
