12
Properties=species:S:1:pos:R:3 gdb_730=T pbc="F F F"
C       -0.02160000       1.53930000       0.02240000
C        0.00200000       0.04130000      -0.00170000
C       -0.05940000      -0.79170000      -1.10110000
N       -0.00390000      -2.06390000      -0.63300000
N        0.08920000      -2.12900000       0.70720000
C        0.09260000      -0.85580000       1.09100000
H        0.89260000       1.95260000       0.46310000
H       -0.11340000       1.94850000      -0.98770000
H       -0.86320000       1.92200000       0.61050000
H       -0.13620000      -0.57650000      -2.15570000
H       -0.02540000      -2.91820000      -1.16250000
H        0.16050000      -0.61690000       2.14310000
