23
Properties=species:S:1:pos:R:3 gdb_59708=T pbc="F F F"
C       -0.01120000       1.54100000      -0.01290000
C        0.01810000       0.00560000       0.03190000
C        0.81640000      -0.48070000       1.24920000
C       -1.40400000      -0.58300000       0.01770000
C       -2.22860000      -0.18440000      -1.23530000
O       -3.14870000      -1.24070000      -1.49910000
C       -2.61930000      -2.42200000      -0.95640000
C       -1.20980000      -2.81710000      -1.31340000
C       -1.51050000      -2.10520000       0.00000000
H        1.00360000       1.95180000      -0.00840000
H       -0.51510000       1.91750000      -0.90860000
H       -0.53590000       1.94690000       0.86060000
H        0.53060000      -0.35230000      -0.87260000
H        0.90690000      -1.57070000       1.26280000
H        1.82770000      -0.06080000       1.24730000
H        0.33290000      -0.17200000       2.18420000
H       -1.92900000      -0.22960000       0.91650000
H       -2.80620000       0.73430000      -1.10430000
H       -1.55970000      -0.03850000      -2.09750000
H       -3.38510000      -3.16850000      -0.78250000
H       -0.95920000      -3.87100000      -1.25630000
H       -0.69880000      -2.28230000      -2.10680000
H       -1.39060000      -2.64860000       0.92940000
