18
Properties=species:S:1:pos:R:3 gdb_13252=T pbc="F F F"
O       -0.64110000       0.71210000       0.69630000
C        0.04380000       0.99260000      -0.25270000
C        1.33300000       1.77940000      -0.19140000
C        1.28160000       3.03450000      -1.08190000
C        2.60700000       3.78610000      -1.11860000
C        3.76140000       3.15670000      -1.93500000
O        3.81000000       4.28600000      -2.82840000
C        2.72820000       4.94220000      -2.13790000
H       -0.25080000       0.68050000      -1.28310000
H        1.53770000       2.03480000       0.85250000
H        2.13850000       1.11950000      -0.54660000
H        0.99960000       2.74940000      -2.10460000
H        0.49280000       3.70500000      -0.71770000
H        2.90440000       4.07220000      -0.10590000
H        4.70980000       3.01240000      -1.40350000
H        3.50860000       2.22630000      -2.46350000
H        1.85270000       5.08540000      -2.78600000
H        3.03000000       5.91490000      -1.73090000
