15
Properties=species:S:1:pos:R:3 gdb_23572=T pbc="F F F"
O       -0.10550000       1.35290000       0.01540000
N        0.04470000      -0.04670000       0.02530000
C       -1.06790000      -0.62630000       0.08570000
C       -2.56310000      -0.33960000       0.02860000
N       -2.58180000      -1.52960000      -0.91810000
C       -1.50710000      -2.07390000       0.00960000
C       -2.26580000      -2.21980000       1.36370000
O       -1.97360000      -1.19570000       2.32620000
C       -3.02660000      -0.96570000       1.37690000
H        0.80860000       1.65160000      -0.03850000
H       -2.99530000       0.59760000      -0.31150000
H       -3.45340000      -2.06000000      -0.83250000
H       -0.88010000      -2.88730000      -0.34830000
H       -2.59780000      -3.17640000       1.75260000
H       -4.02370000      -0.82380000       1.77950000
