21
Properties=species:S:1:pos:R:3 gdb_37980=T pbc="F F F"
C       -0.01900000       1.67380000      -0.02490000
C        1.47520000       1.23740000       0.01450000
C        1.03810000       0.21940000       1.12090000
C        1.89310000      -0.94970000       1.60560000
C        2.79010000      -1.63510000       0.57320000
C        2.03950000      -1.97860000      -0.70640000
O        1.84010000      -0.85470000      -1.54230000
C        1.05380000       0.21100000      -1.09750000
C       -0.05620000       0.11560000      -0.00210000
H       -0.39560000       2.17070000       0.87060000
H       -0.36990000       2.16410000      -0.93620000
H        2.34780000       1.89300000       0.01710000
H        0.64210000       0.72450000       2.01070000
H        2.51230000      -0.59340000       2.43860000
H        1.21470000      -1.69660000       2.04250000
H        3.63600000      -0.99070000       0.30420000
H        3.21210000      -2.54930000       1.00790000
H        2.61260000      -2.68270000      -1.31760000
H        1.07520000      -2.45650000      -0.46660000
H        0.72640000       0.70030000      -2.01990000
H       -0.94930000      -0.51250000      -0.00200000
