18
Properties=species:S:1:pos:R:3 gdb_97032=T pbc="F F F"
C       -0.18630000       1.32680000      -0.76520000
N       -0.19980000      -0.10410000      -0.52030000
C       -1.14610000      -0.61830000       0.15550000
N       -2.21370000       0.03560000       0.74680000
C       -3.30210000      -0.66640000       1.27180000
N       -3.53630000      -1.90310000       1.12200000
C       -2.58200000      -2.65140000       0.30360000
C       -1.14730000      -2.11680000       0.40670000
O       -0.29050000      -2.77660000      -0.48130000
H        0.58460000       1.56150000      -1.50250000
H       -1.14640000       1.70060000      -1.15300000
H        0.05200000       1.89380000       0.14740000
H       -2.21080000       1.04140000       0.80690000
H       -3.99110000      -0.04140000       1.83930000
H       -2.60320000      -3.70270000       0.60220000
H       -2.90250000      -2.61460000      -0.74750000
H       -0.81160000      -2.25620000       1.45150000
H        0.25200000      -2.07170000      -0.87410000
