22
Properties=species:S:1:pos:R:3 gdb_115152=T pbc="F F F"
C       -0.00320000       1.65100000      -0.01390000
C       -0.06480000       0.11910000      -0.01710000
C        0.71410000      -0.51710000      -1.17060000
C        2.23960000      -0.24740000      -1.14170000
N        2.76620000      -1.35230000      -1.92030000
C        1.93250000      -2.43350000      -2.02160000
O        2.20370000      -3.49580000      -2.53910000
C        0.62100000      -2.05820000      -1.31310000
C        0.52690000      -2.85770000      -0.00310000
H        1.02210000       2.01500000       0.11240000
H       -0.38810000       2.06490000      -0.95270000
H       -0.60100000       2.06670000       0.80270000
H        0.31170000      -0.26210000       0.93980000
H       -1.11290000      -0.19900000      -0.08130000
H        0.33920000      -0.08820000      -2.10930000
H        2.49980000       0.71630000      -1.59030000
H        2.62700000      -0.24980000      -0.11080000
H        3.73280000      -1.43200000      -2.19430000
H       -0.21590000      -2.34670000      -1.95540000
H        1.34030000      -2.60730000       0.68690000
H       -0.42040000      -2.67250000       0.51080000
H        0.59690000      -3.92550000      -0.22610000
