16
Properties=species:S:1:pos:R:3 gdb_26820=T pbc="F F F"
C        0.16560000       1.48190000       0.03230000
C       -0.03020000       0.01150000       0.00110000
C       -1.11970000      -0.81930000       0.03730000
C       -2.57170000      -0.48550000       0.12680000
N       -0.67580000      -2.12570000      -0.02450000
C        0.62230000      -2.03960000      -0.09350000
O        1.08510000      -0.76540000      -0.08250000
C        1.56000000      -3.16220000      -0.17710000
O        2.76160000      -3.05440000      -0.24020000
H        0.77460000       1.78140000       0.89220000
H        0.67760000       1.83170000      -0.87070000
H       -0.79810000       1.98990000       0.09980000
H       -3.11510000      -0.88050000      -0.73760000
H       -3.01820000      -0.93090000       1.02170000
H       -2.73270000       0.59440000       0.16660000
H        1.03640000      -4.13870000      -0.17620000
