21
Properties=species:S:1:pos:R:3 gdb_109663=T pbc="F F F"
C        0.00060000       1.62600000      -0.09230000
C       -0.06110000       0.11990000       0.06530000
C       -1.29950000      -0.52350000      -0.52050000
O       -1.33370000      -0.25490000      -1.91550000
C        1.21460000      -0.68350000      -0.01330000
O        2.42680000      -0.01140000      -0.16440000
C        0.49310000      -0.56770000       1.31470000
C        1.18330000       0.19190000       2.42780000
O        2.51710000      -0.29170000       2.66710000
H        1.01460000       1.99930000       0.05780000
H       -0.30280000       1.88730000      -1.10930000
H       -0.67550000       2.13490000       0.60490000
H       -1.27930000      -1.60900000      -0.33030000
H       -2.19470000      -0.12070000      -0.01820000
H       -2.18990000      -0.53200000      -2.25420000
H        1.16560000      -1.63910000      -0.53580000
H        2.91470000      -0.13260000       0.66330000
H       -0.04690000      -1.45300000       1.64510000
H        1.31190000       1.24580000       2.17790000
H        0.59240000       0.14470000       3.35240000
H        2.45190000      -1.22530000       2.89470000
