11
Properties=species:S:1:pos:R:3 gdb_24962=T pbc="F F F"
O        0.01110000       0.02430000      -0.08530000
C       -0.03240000       1.21520000      -0.05710000
N       -1.17690000       2.04240000      -0.08010000
C       -0.72190000       3.32690000       0.14770000
C        0.61820000       3.31630000       0.15020000
O        1.09870000       2.03930000       0.03400000
N        1.12410000       4.57800000       0.03140000
C        0.04270000       5.30200000      -0.02690000
O       -1.15270000       4.59670000      -0.00080000
H       -2.07080000       1.64440000       0.16010000
H       -0.04870000       6.37480000      -0.02740000
