8
Properties=species:S:1:pos:R:3 gdb_111=T pbc="F F F"
O        0.00420000      -0.10570000       0.10780000
C        0.02500000       1.05360000      -0.19220000
C        1.31230000       1.89240000      -0.14810000
C        1.33890000       2.93420000      -1.16680000
N        1.32160000       3.74820000      -1.98630000
H       -0.88520000       1.61030000      -0.49610000
H        1.36180000       2.36100000       0.84470000
H        2.17340000       1.22470000      -0.23810000
