22
Properties=species:S:1:pos:R:3 gdb_121803=T pbc="F F F"
C        0.11360000       1.56900000      -0.10450000
C        0.03860000       0.04100000      -0.04830000
C       -1.39800000      -0.48160000       0.07390000
C       -1.46030000      -2.01100000       0.14640000
C       -2.89220000      -2.59650000       0.06630000
C       -3.80430000      -2.12870000       1.20650000
O       -3.54680000      -2.21320000      -1.13900000
C       -2.78260000      -4.07790000       0.10880000
N       -2.67600000      -5.22880000       0.11410000
H        1.14800000       1.91400000      -0.19540000
H       -0.44570000       1.96140000      -0.96090000
H       -0.30940000       2.02000000       0.80000000
H        0.50300000      -0.38330000      -0.94830000
H        0.63280000      -0.32540000       0.79930000
H       -1.86080000      -0.04440000       0.96690000
H       -1.99170000      -0.13860000      -0.78140000
H       -0.87960000      -2.44140000      -0.68080000
H       -0.98610000      -2.37250000       1.06670000
H       -3.94930000      -1.04920000       1.13530000
H       -4.77850000      -2.61490000       1.12660000
H       -3.36520000      -2.37080000       2.17720000
H       -3.02970000      -2.54100000      -1.88400000
