18
Properties=species:S:1:pos:R:3 gdb_31230=T pbc="F F F"
C       -0.39310000       1.41760000      -0.04270000
C        0.12000000      -0.03010000       0.05220000
C        0.89500000      -0.46100000      -1.14320000
C        2.19110000      -0.79890000      -1.38890000
C        3.36150000      -0.87460000      -0.45140000
O        3.01340000      -1.30500000       0.85930000
N        2.33680000      -1.10260000      -2.74330000
C        1.15630000      -0.93360000      -3.23630000
O        0.22080000      -0.55070000      -2.34030000
H        0.43860000       2.12250000      -0.13540000
H       -1.04350000       1.54690000      -0.91240000
H       -0.96470000       1.68010000       0.85230000
H        0.77480000      -0.15110000       0.91860000
H       -0.73290000      -0.70660000       0.19510000
H        4.12350000      -1.52040000      -0.90920000
H        3.81910000       0.11220000      -0.31600000
H        2.62500000      -2.18280000       0.77850000
H        0.82910000      -1.06590000      -4.25580000
