19
Properties=species:S:1:pos:R:3 gdb_10536=T pbc="F F F"
C       -0.07310000       1.58520000      -0.05510000
C       -0.18150000       0.06190000      -0.15820000
C        0.87370000      -0.54260000      -1.09270000
C        0.78890000      -2.06080000      -1.21610000
C       -0.20080000      -2.67170000      -2.19920000
C        1.26810000      -2.73400000      -2.49410000
C        1.01050000      -2.78520000       0.01180000
N        1.19150000      -3.35200000       1.00460000
H        0.90620000       1.88780000       0.33170000
H       -0.20370000       2.06150000      -1.03340000
H       -0.83530000       1.99100000       0.61660000
H       -0.07710000      -0.38500000       0.83770000
H       -1.18090000      -0.21660000      -0.51550000
H        0.76570000      -0.11730000      -2.09830000
H        1.87730000      -0.26660000      -0.74540000
H       -0.70590000      -3.58500000      -1.90950000
H       -0.81270000      -1.97140000      -2.75710000
H        1.67400000      -2.07880000      -3.25680000
H        1.76900000      -3.69010000      -2.40250000
