17
Properties=species:S:1:pos:R:3 gdb_9795=T pbc="F F F"
N       -0.39240000       1.29010000       0.07580000
C        0.01520000      -0.10610000      -0.04960000
C        0.89840000      -0.36000000      -1.21630000
N        1.59030000      -0.52080000      -2.12910000
C        0.73030000      -0.54910000       1.22670000
N        1.91100000       0.24880000       1.46940000
C       -0.12700000      -0.95060000       2.38790000
C        0.64180000      -2.00670000       1.62060000
H        0.42720000       1.82210000       0.35970000
H       -0.70170000       1.65450000      -0.81980000
H       -0.87830000      -0.72660000      -0.18470000
H        2.15350000       0.26570000       2.45230000
H        2.70930000      -0.11410000       0.95660000
H        0.21860000      -0.68850000       3.38280000
H       -1.20330000      -0.89880000       2.27030000
H        0.08680000      -2.69140000       0.98750000
H        1.51430000      -2.44310000       2.09430000
