20
Properties=species:S:1:pos:R:3 gdb_81586=T pbc="F F F"
C       -0.03920000       1.62550000       0.21940000
C        0.03010000       0.11940000       0.04690000
C        0.71110000      -0.57890000      -1.16240000
C        2.04140000      -0.17100000      -0.49560000
N        1.21510000      -0.65170000       0.71540000
C        0.82420000      -1.81070000      -0.22420000
C       -0.28390000      -2.76060000       0.15260000
C       -0.55300000      -3.12070000       1.55220000
O       -1.48300000      -2.33310000       0.80080000
H        0.82840000       2.17330000      -0.15390000
H       -0.92150000       2.00630000      -0.30660000
H       -0.16030000       1.86800000       1.28050000
H       -0.91790000      -0.31500000       0.35460000
H        0.43430000      -0.55050000      -2.22300000
H        2.92340000      -0.78800000      -0.69030000
H        2.31270000       0.88240000      -0.45560000
H        1.69310000      -2.44900000      -0.43410000
H       -0.45430000      -3.52830000      -0.60570000
H       -0.88990000      -4.12560000       1.80030000
H       -0.02450000      -2.58400000       2.33690000
