18
Properties=species:S:1:pos:R:3 gdb_8693=T pbc="F F F"
N        0.18030000       1.45820000       0.07150000
C        0.03080000       0.01640000      -0.01240000
C       -1.42910000      -0.51860000      -0.09440000
N       -2.07200000       0.05900000      -1.28060000
C       -1.44770000      -2.07090000      -0.07830000
N       -2.81760000      -2.55920000      -0.22420000
C       -2.16560000      -0.04790000       1.09810000
N       -2.71950000       0.28060000       2.05820000
H       -0.40860000       1.89220000      -0.63450000
H       -0.16620000       1.78810000       0.96810000
H        0.54430000      -0.34310000      -0.91510000
H        0.53260000      -0.44600000       0.84370000
H       -1.51400000      -0.19730000      -2.09290000
H       -2.96990000      -0.40540000      -1.40290000
H       -0.86660000      -2.40960000      -0.94410000
H       -0.92940000      -2.43050000       0.82520000
H       -2.82080000      -3.54590000      -0.45750000
H       -3.31770000      -2.46350000       0.65490000
