18
Properties=species:S:1:pos:R:3 gdb_31117=T pbc="F F F"
C        0.21710000       1.53110000       0.13970000
C       -0.01450000       0.06290000       0.07420000
C       -1.14060000      -0.70640000       0.00260000
C       -2.57440000      -0.29570000      -0.05480000
O       -3.25700000      -0.87580000      -1.17670000
C       -0.69180000      -2.08030000      -0.02280000
N       -1.56260000      -3.17350000      -0.03920000
C        0.66610000      -2.03240000       0.04040000
O        1.08840000      -0.72390000       0.10700000
H        0.92710000       1.85250000      -0.63010000
H       -0.71940000       2.07350000      -0.00840000
H        0.63030000       1.83130000       1.10990000
H       -3.12400000      -0.66590000       0.81800000
H       -2.67060000       0.79930000      -0.06060000
H       -2.75330000      -0.63820000      -1.96310000
H       -2.39260000      -2.97090000      -0.58460000
H       -1.13170000      -4.03440000      -0.34770000
H        1.44150000      -2.77900000       0.05020000
