11
Properties=species:S:1:pos:R:3 gdb_21346=T pbc="F F F"
N       -0.31100000      -0.83520000      -0.93970000
C       -0.12460000       0.12410000      -0.32560000
C        0.09130000       1.35690000       0.43350000
N        1.38240000       1.95910000       0.14510000
C        2.03800000       2.17530000      -1.01220000
N        3.15520000       2.81400000      -0.75140000
N        3.17140000       2.99140000       0.59860000
N        2.12270000       2.48710000       1.14930000
H       -0.71790000       2.06200000       0.21350000
H        0.07410000       1.14950000       1.50650000
H        1.68830000       1.85250000      -1.97930000
