19
Properties=species:S:1:pos:R:3 gdb_115814=T pbc="F F F"
O       -0.04770000       1.40230000      -0.13570000
C        0.03100000       0.00150000       0.04120000
C       -1.35380000      -0.63150000       0.08770000
O       -2.00710000      -0.26880000      -1.14460000
C       -3.00820000      -1.23050000      -1.44250000
C       -2.50910000      -2.54080000      -0.84810000
O       -3.41610000      -3.57500000      -0.65530000
C       -1.08940000      -2.89700000      -1.13850000
C       -1.42880000      -2.14390000       0.13890000
H       -0.62660000       1.54100000      -0.89450000
H        0.61870000      -0.47750000      -0.75720000
H        0.54860000      -0.17300000       0.99050000
H       -1.90910000      -0.20210000       0.93810000
H       -3.97580000      -0.96680000      -0.97930000
H       -3.14200000      -1.25130000      -2.52870000
H       -4.07710000      -3.28310000      -0.01650000
H       -0.83410000      -3.94310000      -1.01490000
H       -0.56930000      -2.38360000      -1.94050000
H       -1.32930000      -2.65290000       1.09000000
