15
Properties=species:S:1:pos:R:3 gdb_61705=T pbc="F F F"
C       -0.01150000       1.68540000       0.04500000
C        0.04040000       0.15770000       0.09400000
O        0.68870000      -0.33650000       1.26370000
C        2.04560000      -0.23510000       1.35150000
N        2.59620000      -0.45080000       2.46030000
C       -1.38940000      -0.45010000       0.20200000
O       -2.37260000       0.11840000      -0.16980000
C        0.64260000      -0.40070000      -1.13510000
N        1.09330000      -0.84490000      -2.10260000
H        0.98410000       2.10480000      -0.11390000
H       -0.67150000       2.00350000      -0.76390000
H       -0.41130000       2.05240000       0.99280000
H        2.53320000       0.00710000       0.40090000
H        3.60800000      -0.37880000       2.37290000
H       -1.39070000      -1.45520000       0.66670000
