18
Properties=species:S:1:pos:R:3 gdb_71194=T pbc="F F F"
C        0.17700000       1.56400000      -0.08200000
C        0.10860000       0.06380000       0.00750000
C       -1.22010000      -0.71790000       0.09490000
N       -0.51880000      -1.83640000       0.80860000
C        0.83250000      -1.91870000       0.15740000
C        0.56380000      -0.89280000       1.19150000
C        0.95270000      -0.84450000      -0.93530000
C        0.51920000      -1.11600000      -2.35330000
O       -0.32210000      -0.48880000      -2.94820000
H        1.20670000       1.92720000       0.00760000
H       -0.21550000       1.89960000      -1.04740000
H       -0.41540000       2.03530000       0.70960000
H       -1.92460000      -0.26120000       0.79550000
H       -1.73410000      -0.98860000      -0.83110000
H        1.35540000      -2.86220000       0.23900000
H        0.93310000      -0.74600000       2.19810000
H        1.99980000      -0.51140000      -0.96680000
H        1.05970000      -1.95740000      -2.84870000
