19
Properties=species:S:1:pos:R:3 gdb_17642=T pbc="F F F"
C       -0.40380000       1.59920000      -1.04830000
C       -0.00130000       0.52870000      -0.02210000
N       -1.17650000       0.15070000       0.76000000
C       -2.20770000      -0.74110000       0.23400000
C       -1.31330000      -1.17550000       1.34640000
C        0.76250000      -0.58900000      -0.75830000
C        2.27680000      -0.52520000      -0.67610000
O        0.19540000      -1.46430000      -1.37560000
H        0.47030000       2.01220000      -1.56120000
H       -1.07090000       1.16760000      -1.79980000
H       -0.92760000       2.41110000      -0.53770000
H        0.69750000       0.98240000       0.69300000
H       -3.22790000      -0.42980000       0.44550000
H       -2.04340000      -1.21540000      -0.72640000
H       -0.58030000      -1.94060000       1.10230000
H       -1.67020000      -1.19480000       2.37300000
H        2.59470000      -0.74990000       0.34940000
H        2.72180000      -1.24840000      -1.36050000
H        2.63940000       0.48350000      -0.90260000
