21
Properties=species:S:1:pos:R:3 gdb_86986=T pbc="F F F"
C       -0.11780000       1.56440000      -0.02310000
C       -0.06460000       0.04190000      -0.04740000
C        1.11850000      -0.55620000      -0.85650000
N        1.86490000      -0.72130000       0.40730000
C        2.69620000      -1.88950000       0.56780000
C        3.48030000      -1.80710000       1.89250000
C        4.34630000      -2.96370000       2.10050000
N        5.02720000      -3.88600000       2.24630000
C        0.61480000      -0.60620000       1.18940000
H        0.86240000       1.98320000       0.22700000
H       -0.41750000       1.96330000      -0.99810000
H       -0.83870000       1.92220000       0.71980000
H       -1.04280000      -0.37350000      -0.29730000
H        0.85650000      -1.51350000      -1.33520000
H        1.60890000       0.08750000      -1.59580000
H        2.11660000      -2.83240000       0.54750000
H        3.40510000      -1.93030000      -0.26630000
H        4.08320000      -0.89330000       1.89990000
H        2.78370000      -1.73660000       2.73590000
H        0.69090000      -0.00050000       2.09980000
H        0.17500000      -1.58410000       1.44770000
