21
Properties=species:S:1:pos:R:3 gdb_120686=T pbc="F F F"
C        0.17420000       1.33620000      -0.22980000
O        0.30120000      -0.06290000      -0.17160000
C        0.42300000      -0.54340000       1.15300000
C        0.50360000      -2.04440000       1.11080000
C        1.81370000      -2.72630000       0.84910000
C        1.18970000      -2.81350000       2.23470000
C        1.78720000      -2.14320000       3.35540000
C        2.28230000      -1.60150000       4.31190000
C        2.88560000      -0.94990000       5.46580000
H        1.05250000       1.84680000       0.19750000
H        0.08340000       1.61440000      -1.28280000
H       -0.71950000       1.69080000       0.30930000
H        1.31990000      -0.12720000       1.63850000
H       -0.44500000      -0.22270000       1.75510000
H       -0.38180000      -2.52180000       0.70140000
H        1.82510000      -3.62570000       0.24410000
H        2.69230000      -2.09930000       0.74830000
H        0.72790000      -3.76640000       2.47830000
H        2.99290000      -1.64900000       6.30280000
H        3.88400000      -0.56350000       5.23100000
H        2.27870000      -0.10740000       5.81660000
