13
Properties=species:S:1:pos:R:3 gdb_128986=T pbc="F F F"
N        0.03200000       1.24220000       0.00900000
N        1.20300000       1.86030000       0.00090000
C        2.06050000       0.81910000      -0.01330000
C        3.46710000       0.75520000      -0.02750000
C        3.99830000      -0.51120000      -0.03980000
C        3.14910000      -1.65870000      -0.03780000
N        1.83250000      -1.63570000      -0.02470000
C        1.30840000      -0.39280000      -0.01260000
N       -0.00610000      -0.07790000       0.00210000
H       -0.82500000       1.77580000       0.02040000
H        4.08060000       1.64870000      -0.02860000
H        5.07190000      -0.66230000      -0.05120000
H        3.61090000      -2.64390000      -0.04780000
