17
Properties=species:S:1:pos:R:3 gdb_16075=T pbc="F F F"
C        0.03420000       1.37430000      -0.26240000
O        0.00120000       0.04880000       0.25150000
C       -1.22840000      -0.55510000       0.13450000
C       -2.34320000      -0.48470000       1.18800000
N       -2.76550000      -1.88960000       0.83950000
C       -1.57310000      -2.03370000      -0.03270000
C       -1.79330000      -1.07930000      -1.17230000
O       -3.07070000      -0.79980000      -1.64580000
H        1.06490000       1.72380000      -0.17130000
H       -0.26880000       1.40160000      -1.31710000
H       -0.62180000       2.04650000       0.30770000
H       -1.92850000      -0.40930000       2.19720000
H       -3.13320000       0.26060000       1.05090000
H       -2.71240000      -2.49760000       1.64870000
H       -0.98050000      -2.94000000      -0.06870000
H       -1.05050000      -1.13870000      -1.96370000
H       -3.67020000      -1.24920000      -1.02910000
