17
Properties=species:S:1:pos:R:3 gdb_48493=T pbc="F F F"
O       -0.07300000      -0.03710000       0.43550000
C       -0.00580000       1.11790000       0.10560000
C        1.29390000       1.90950000      -0.02190000
C        1.46700000       2.82300000       1.23240000
C        2.47950000       2.03430000       2.07310000
O        3.36230000       1.47270000       1.12080000
C        2.56960000       1.01130000       0.03920000
C        1.27640000       2.74090000      -1.28930000
O        0.42180000       2.69010000      -2.13540000
H       -0.91750000       1.71500000      -0.09660000
H        1.89290000       3.78740000       0.93500000
H        0.52100000       3.01640000       1.74610000
H        3.06330000       2.65840000       2.75390000
H        1.97070000       1.25150000       2.65710000
H        2.24540000      -0.02590000       0.18830000
H        3.17790000       1.06920000      -0.86880000
H        2.15480000       3.41990000      -1.38790000
