19
Properties=species:S:1:pos:R:3 gdb_52847=T pbc="F F F"
C       -0.16470000       1.37110000       0.21390000
C       -0.05780000      -0.07480000       0.08020000
C        0.03620000      -1.27260000      -0.01730000
C        0.12830000      -2.72860000      -0.18350000
O        0.88650000      -3.04050000      -1.36100000
C        0.81040000      -3.45160000       1.01500000
C       -0.32930000      -4.07670000       1.85150000
C       -1.49510000      -4.08240000       0.89310000
C       -1.25920000      -3.35630000      -0.19520000
H        0.81880000       1.85090000       0.16250000
H       -0.78660000       1.80080000      -0.57910000
H       -0.61740000       1.64550000       1.17320000
H        0.65200000      -2.39470000      -2.03580000
H        1.43480000      -4.23480000       0.57770000
H        1.45530000      -2.78220000       1.58560000
H       -0.07840000      -5.07780000       2.21970000
H       -0.56180000      -3.47240000       2.73860000
H       -2.42260000      -4.60360000       1.10560000
H       -1.94820000      -3.17130000      -1.01140000
