16
Properties=species:S:1:pos:R:3 gdb_47159=T pbc="F F F"
N       -0.14040000       1.32260000      -0.08480000
C       -0.00090000       0.08280000       0.10210000
O        1.20990000      -0.49510000       0.37220000
C        1.33510000      -1.88900000       0.74480000
C        0.14330000      -2.41030000       1.51250000
C       -1.01850000      -1.94230000       1.09540000
C       -2.44550000      -1.64750000       1.47410000
O       -2.43430000      -0.50600000       0.56770000
C       -1.14890000      -0.89760000       0.03090000
H        0.75440000       1.80320000       0.03170000
H        1.51870000      -2.47250000      -0.16790000
H        2.24410000      -1.93190000       1.34980000
H        0.29230000      -3.05220000       2.37330000
H       -3.18870000      -2.39590000       1.16830000
H       -2.62990000      -1.35680000       2.51440000
H       -1.25030000      -1.26960000      -1.00030000
