17
Properties=species:S:1:pos:R:3 gdb_41498=T pbc="F F F"
C        0.07220000       1.52800000      -0.12070000
O        1.52780000       1.38210000       0.09850000
C        1.28770000       0.12370000       0.61400000
N        1.78940000      -0.47080000       1.60410000
C        0.75860000      -1.39930000       2.14960000
C       -0.49910000      -0.51740000       2.41410000
N       -0.95730000      -0.76270000       0.98680000
C       -0.15940000      -2.06930000       1.09800000
C       -0.09720000      -0.00950000       0.06050000
H       -0.36470000       2.14230000       0.67080000
H       -0.14160000       1.94080000      -1.10750000
H        1.18960000      -2.00860000       2.94380000
H       -1.22670000      -0.97720000       3.08700000
H       -0.32800000       0.52360000       2.69870000
H        0.28450000      -2.42470000       0.16480000
H       -0.79580000      -2.84790000       1.52590000
H       -0.15050000      -0.48230000      -0.92250000
