18
Properties=species:S:1:pos:R:3 gdb_5379=T pbc="F F F"
C       -0.04410000       1.56100000       0.05420000
C        0.00210000       0.02400000       0.00150000
C        0.70420000      -0.49740000      -1.23200000
C       -0.00410000      -0.73670000      -2.41360000
C        0.64490000      -1.18460000      -3.56110000
C        2.02060000      -1.40320000      -3.54600000
C        2.73890000      -1.17050000      -2.37550000
C        2.08420000      -0.72260000      -1.23110000
H        0.96610000       1.98260000       0.05350000
H       -0.57190000       1.96630000      -0.81500000
H       -0.55740000       1.90780000       0.95670000
H        0.50900000      -0.35210000       0.89760000
H       -1.02100000      -0.36840000       0.03370000
H       -1.07840000      -0.57410000      -2.43170000
H        0.07490000      -1.36820000      -4.46630000
H        2.52800000      -1.75550000      -4.43790000
H        3.81020000      -1.34290000      -2.35130000
H        2.65060000      -0.54890000      -0.32020000
