14
Properties=species:S:1:pos:R:3 gdb_3726=T pbc="F F F"
C        0.29290000       1.43680000       0.29420000
C       -0.22860000       0.07820000      -0.20110000
C        0.59290000      -0.48920000      -1.31940000
N        0.07290000      -0.62740000      -2.51710000
O        1.08320000      -1.16050000      -3.31690000
C        2.18150000      -1.32550000      -2.56820000
C        1.95380000      -0.92420000      -1.29410000
H        1.32080000       1.36050000       0.66250000
H        0.27980000       2.17610000      -0.51190000
H       -0.32970000       1.81160000       1.11180000
H       -0.23900000      -0.63550000       0.63150000
H       -1.25950000       0.17520000      -0.55330000
H        3.03960000      -1.73800000      -3.07650000
H        2.63690000      -0.93550000      -0.46120000
