18
Properties=species:S:1:pos:R:3 gdb_54119=T pbc="F F F"
C        0.01890000       1.55730000      -0.01960000
C        0.07180000       0.05060000      -0.00200000
C        1.30760000      -0.78220000      -0.25420000
C        2.55760000      -0.14200000       0.34430000
N        1.86170000      -0.04910000       1.70920000
H        2.34320000      -0.57380000       2.43730000
H        1.67450000       0.89750000       2.04610000
C        0.63530000      -0.76770000       1.10440000
C       -1.23210000      -0.70800000      -0.56470000
O       -2.05780000       0.04520000      -1.07870000
O       -1.17780000      -1.93770000      -0.37830000
H        0.95290000       2.06530000       0.26970000
H       -0.24200000       1.88020000      -1.02910000
H       -0.78280000       1.91110000       0.63440000
H        1.31270000      -1.60370000      -0.95450000
H        3.42000000      -0.80340000       0.44210000
H        2.87480000       0.84080000      -0.01220000
H        0.13360000      -1.51970000       1.69410000
