16
Properties=species:S:1:pos:R:3 gdb_49219=T pbc="F F F"
O       -0.10130000      -0.02650000      -0.18100000
C       -0.00810000       1.18770000      -0.16370000
C        1.22760000       1.91430000      -0.02660000
C        1.35770000       3.26000000       0.01070000
N        2.64820000       3.67480000       0.22280000
C        3.56000000       2.51590000       0.02470000
C        2.59580000       1.28730000       0.14950000
C        4.24360000       2.59300000      -1.26550000
C        4.80900000       2.67590000      -2.32300000
H       -0.91190000       1.83280000      -0.26390000
H        0.56810000       3.99800000      -0.06700000
H        2.94760000       4.56740000      -0.14240000
H        4.30960000       2.50800000       0.82180000
H        2.69550000       0.82260000       1.13640000
H        2.81450000       0.52020000      -0.59520000
H        5.30780000       2.73650000      -3.25900000
