16
Properties=species:S:1:pos:R:3 gdb_14623=T pbc="F F F"
N       -0.85390000       0.12240000      -1.02640000
C       -0.35960000      -0.02800000       0.13280000
O       -0.42920000      -1.14730000       0.85210000
C       -0.96240000      -2.34940000       0.24920000
C       -2.48780000      -2.42160000       0.23340000
N       -3.07540000      -1.79370000      -0.93420000
C       -4.14720000      -2.32620000      -1.56800000
O       -4.75340000      -3.31870000      -1.21300000
H       -0.66030000       1.05530000      -1.38090000
H        0.18810000       0.72860000       0.70180000
H       -0.55580000      -2.45680000      -0.76070000
H       -0.56790000      -3.14200000       0.88790000
H       -2.79820000      -3.47080000       0.22240000
H       -2.86920000      -1.98630000       1.16760000
H       -2.58000000      -0.99730000      -1.32010000
H       -4.42040000      -1.74470000      -2.47100000
