18
Properties=species:S:1:pos:R:3 gdb_109522=T pbc="F F F"
C        0.23760000       1.57790000       0.05990000
C       -0.22140000       0.13180000      -0.10050000
N        0.55690000      -0.52330000      -1.15600000
C        1.80840000      -1.20320000      -0.79510000
C        2.29050000      -1.26190000       0.55590000
C        2.73500000      -1.28320000       1.67340000
C        0.57820000      -1.98840000      -1.21570000
C       -0.13210000      -2.80710000      -0.27410000
C       -0.75760000      -3.51130000       0.47370000
H        1.27530000       1.61940000       0.40420000
H        0.16920000       2.11460000      -0.89060000
H       -0.38420000       2.09390000       0.79780000
H       -0.15570000      -0.39720000       0.85930000
H       -1.26860000       0.09550000      -0.41980000
H        2.58980000      -1.09310000      -1.54450000
H        3.12140000      -1.31560000       2.66210000
H        0.57950000      -2.37670000      -2.23270000
H       -1.29920000      -4.13290000       1.14300000
