23
Properties=species:S:1:pos:R:3 gdb_100466=T pbc="F F F"
C        0.05530000       1.38380000       0.13280000
O       -0.05160000      -0.01490000       0.00300000
C        0.60830000      -0.54560000      -1.14510000
C        2.12630000      -0.66260000      -0.92880000
C        0.01410000      -1.84820000      -1.44660000
C       -0.45140000      -2.92710000      -1.71100000
C       -1.01020000      -4.24450000      -2.01750000
C       -0.28260000      -4.88870000      -3.21450000
C       -0.97480000      -5.16220000      -0.77930000
H        1.08610000       1.72000000       0.31880000
H       -0.32020000       1.90570000      -0.76190000
H       -0.55960000       1.67050000       0.98950000
H        0.42600000       0.12880000      -2.00000000
H        2.32870000      -1.31300000      -0.07430000
H        2.60230000      -1.08940000      -1.81590000
H        2.57140000       0.31860000      -0.74080000
H       -2.06280000      -4.10630000      -2.30180000
H       -0.73690000      -5.85430000      -3.45860000
H       -0.33510000      -4.24810000      -4.09880000
H        0.77310000      -5.05580000      -2.97900000
H       -1.51000000      -4.71030000       0.05970000
H       -1.43920000      -6.12690000      -1.00870000
H        0.05740000      -5.34370000      -0.46430000
