19
Properties=species:S:1:pos:R:3 gdb_69772=T pbc="F F F"
O       -0.05240000       1.35210000       0.08720000
C        0.02490000      -0.04640000      -0.00890000
C       -0.49610000      -0.66220000      -1.28530000
C       -1.29440000      -0.76500000       0.00520000
C       -1.27560000      -2.01910000       0.86530000
C       -0.07140000      -2.94530000       0.59560000
C        0.62360000      -1.95410000       1.54650000
C        1.13520000      -0.69310000       0.82820000
O       -0.66790000      -1.65770000       2.14940000
H        0.66820000       1.72330000      -0.43390000
H       -0.87250000       0.03890000      -2.02240000
H       -0.02550000      -1.54440000      -1.70350000
H       -2.18250000      -0.14720000       0.08170000
H       -2.26280000      -2.46860000       0.99180000
H       -0.21590000      -3.91580000       1.07200000
H        0.30590000      -3.08250000      -0.41840000
H        1.34470000      -2.33490000       2.27460000
H        2.02880000      -0.92670000       0.23420000
H        1.42220000       0.03940000       1.58870000
