18
Properties=species:S:1:pos:R:3 gdb_124471=T pbc="F F F"
C       -0.34500000       1.45520000      -0.15110000
C        0.02820000      -0.02280000       0.04640000
C        0.94020000      -0.20170000       1.27080000
O       -1.15370000      -0.82010000       0.18580000
C        0.70590000      -0.55530000      -1.18650000
C        0.31570000      -1.57490000      -2.02060000
N        1.29480000      -1.61690000      -2.95550000
N        2.24010000      -0.68760000      -2.72800000
N        1.88120000      -0.04410000      -1.65390000
H        0.54530000       2.05090000      -0.36790000
H       -1.04530000       1.55640000      -0.98430000
H       -0.81710000       1.85400000       0.75460000
H        0.45990000       0.20740000       2.16750000
H        1.14210000      -1.26330000       1.43540000
H        1.89100000       0.31620000       1.12100000
H       -1.62000000      -0.51020000       0.96890000
H       -0.53500000      -2.23210000      -2.01660000
H        1.38720000      -2.22800000      -3.75090000
