14
Properties=species:S:1:pos:R:3 gdb_129273=T pbc="F F F"
N       -0.21620000       1.18170000       0.06900000
C       -0.08360000      -0.06130000      -0.00560000
O        0.94440000      -0.80450000      -0.50150000
N        0.61020000      -2.19190000      -0.38390000
C       -0.54410000      -2.17340000       0.18340000
O       -1.04320000      -0.94080000       0.44240000
N       -1.27290000      -3.24670000       0.61420000
C       -2.47030000      -3.66600000      -0.12890000
C       -1.22690000      -4.48770000      -0.15360000
H        0.59680000       1.65630000      -0.31560000
H       -3.30750000      -3.95420000       0.49710000
H       -2.72470000      -3.10650000      -1.02430000
H       -0.63330000      -4.48360000      -1.06230000
H       -1.15860000      -5.38640000       0.44950000
