17
Properties=species:S:1:pos:R:3 gdb_79324=T pbc="F F F"
O       -0.15480000       1.50260000      -0.08970000
C       -0.02620000       0.10190000      -0.09110000
C       -1.33710000      -0.66810000      -0.13180000
C       -1.73290000      -0.83410000      -1.57450000
C       -0.68190000      -0.12620000      -2.43460000
C        0.36420000      -0.63730000      -1.40930000
C       -0.65040000      -1.75370000      -0.98670000
C       -0.62090000      -3.19200000      -0.79150000
O        0.35010000      -3.89950000      -0.94010000
H        0.72040000       1.88940000       0.01600000
H        0.59300000      -0.25350000       0.74270000
H       -2.03380000      -0.83560000       0.67930000
H       -2.73920000      -1.12540000      -1.84690000
H       -0.56910000      -0.61620000      -3.40390000
H       -0.76730000       0.95730000      -2.55260000
H        1.40470000      -0.79380000      -1.68030000
H       -1.60570000      -3.61620000      -0.48310000
