15
Properties=species:S:1:pos:R:3 gdb_127481=T pbc="F F F"
C        0.01640000       1.36860000      -0.03440000
N        0.02790000      -0.07710000       0.03520000
N        0.11910000      -0.80260000      -1.09460000
C        0.11140000      -2.08090000      -0.70340000
N        0.26780000      -3.10460000      -1.62850000
C        0.00300000      -2.19040000       0.69780000
C       -0.05090000      -0.87480000       1.13730000
C       -0.16140000      -0.35470000       2.44800000
N       -0.25310000       0.08300000       3.51700000
H        0.94370000       1.72800000      -0.48820000
H       -0.82930000       1.70680000      -0.63890000
H       -0.07430000       1.76930000       0.97560000
H        0.08650000      -2.79730000      -2.57470000
H       -0.25300000      -3.94150000      -1.40860000
H       -0.02180000      -3.07710000       1.30870000
