20
Properties=species:S:1:pos:R:3 gdb_22117=T pbc="F F F"
C       -0.12990000       1.57640000      -0.09850000
C        0.03660000       0.08280000      -0.08760000
C        0.03850000      -0.65220000       1.23270000
C        1.32000000      -0.46470000       2.05380000
O        1.37410000       0.86860000       2.53720000
C        1.37360000      -1.43030000       3.23670000
O        2.54510000      -1.08970000       3.97410000
N        0.17280000      -0.66590000      -1.11620000
O        0.16780000       0.05470000      -2.32330000
H        0.03750000       1.98780000      -1.09230000
H       -1.14650000       1.83660000       0.22230000
H        0.55450000       2.02780000       0.62360000
H       -0.80750000      -0.31590000       1.84590000
H       -0.08950000      -1.71840000       1.02350000
H        2.19040000      -0.67250000       1.40990000
H        2.07000000       0.87040000       3.20720000
H        0.46930000      -1.30380000       3.85010000
H        1.41400000      -2.47000000       2.88090000
H        2.48650000      -1.48250000       4.84900000
H        0.28630000      -0.64730000      -2.97090000
