18
Properties=species:S:1:pos:R:3 gdb_105502=T pbc="F F F"
N        0.17670000       1.20800000      -0.65370000
C        0.22970000       0.00660000      -0.02980000
O        1.23140000      -0.43710000       0.50170000
C       -1.10910000      -0.76810000      -0.01120000
C       -1.91150000      -0.68450000      -1.31260000
O       -2.47440000       0.61380000      -1.46030000
C       -1.02290000      -2.14820000       0.66450000
C       -1.96630000      -1.54750000       1.72330000
O       -1.95780000      -0.25250000       1.06490000
H        1.00300000       1.78310000      -0.65490000
H       -0.68060000       1.52430000      -1.08480000
H       -1.27870000      -0.86820000      -2.18620000
H       -2.70390000      -1.44660000      -1.29550000
H       -2.92470000       0.78350000      -0.61990000
H       -1.42170000      -2.98020000       0.08190000
H       -0.01860000      -2.37400000       1.01780000
H       -2.97680000      -1.96950000       1.76230000
H       -1.56520000      -1.47850000       2.73920000
