17
Properties=species:S:1:pos:R:3 gdb_71195=T pbc="F F F"
C       -0.05350000       1.49500000      -0.02120000
C        0.11250000       0.01180000       0.06170000
O       -1.14480000      -0.73630000       0.10440000
C       -0.42730000      -1.74870000       0.80570000
C        0.94770000      -1.90460000       0.13380000
C        0.69510000      -0.87500000       1.23240000
C        0.98410000      -0.82110000      -0.95120000
C        0.40720000      -1.10270000      -2.31490000
O        0.99360000      -0.89240000      -3.34900000
H        0.92190000       1.99010000      -0.03110000
H       -0.58570000       1.76430000      -0.93960000
H       -0.62920000       1.86540000       0.83170000
H       -0.97230000      -2.54200000       1.29880000
H        1.53450000      -2.81200000       0.18800000
H        1.18120000      -0.66430000       2.17420000
H        1.98290000      -0.38880000      -1.05050000
H       -0.62030000      -1.52230000      -2.30590000
