21
Properties=species:S:1:pos:R:3 gdb_101903=T pbc="F F F"
C        0.11240000       1.33830000       0.12340000
O       -0.20870000       0.00440000      -0.19990000
C        0.62490000      -0.59440000      -1.18730000
C        2.01370000      -0.93870000      -0.64400000
C       -0.11590000      -1.83900000      -1.67750000
C       -1.48950000      -1.50880000      -2.25060000
O       -2.09880000      -2.68980000      -2.79230000
C       -3.14810000      -3.21650000      -2.13730000
O       -3.70190000      -4.21280000      -2.49400000
H        1.08040000       1.42960000       0.63570000
H        0.13450000       1.97880000      -0.77240000
H       -0.66870000       1.70190000       0.79580000
H        0.73570000       0.11070000      -2.03100000
H        2.55020000      -0.04540000      -0.31310000
H        1.92940000      -1.62390000       0.20520000
H        2.61860000      -1.41890000      -1.41930000
H        0.48350000      -2.34080000      -2.44420000
H       -0.23000000      -2.54050000      -0.84240000
H       -2.12990000      -1.06660000      -1.48090000
H       -1.40870000      -0.79610000      -3.07780000
H       -3.43720000      -2.62400000      -1.24640000
