15
Properties=species:S:1:pos:R:3 gdb_123687=T pbc="F F F"
C       -0.05660000       1.43130000       0.00900000
C        1.41200000       1.85930000      -0.02350000
O        2.16720000       1.46010000       1.11590000
C        2.26640000       0.65230000      -0.08190000
C        1.34060000      -0.49870000      -0.06730000
C        1.23710000      -1.87480000      -0.04840000
C       -0.15560000      -2.10560000       0.04880000
N       -0.86330000      -0.97060000       0.08860000
N        0.07140000      -0.01940000       0.00350000
H       -0.57080000       1.77900000       0.90960000
H       -0.60160000       1.78490000      -0.87250000
H        1.68330000       2.81090000      -0.47070000
H        3.24310000       0.62050000      -0.55040000
H        2.03050000      -2.60270000      -0.08290000
H       -0.67100000      -3.05400000       0.09090000
