18
Properties=species:S:1:pos:R:3 gdb_9760=T pbc="F F F"
C       -0.04920000       1.31630000      -0.21830000
O       -0.14920000      -0.09160000      -0.09390000
C       -1.44350000      -0.60210000       0.17930000
C       -2.01420000      -0.06630000       1.49260000
O       -2.35840000      -0.27730000      -0.86610000
C       -2.55410000      -1.40170000      -1.71850000
C       -1.93050000      -2.55460000      -0.98430000
C       -1.31690000      -2.10760000       0.10250000
H        0.94310000       1.52100000      -0.62750000
H       -0.80780000       1.71150000      -0.90360000
H       -0.13760000       1.82990000       0.74900000
H       -2.24970000       0.99760000       1.40950000
H       -2.93700000      -0.59700000       1.73740000
H       -1.29440000      -0.20710000       2.30390000
H       -3.63200000      -1.52970000      -1.88730000
H       -2.08370000      -1.24010000      -2.70110000
H       -1.97920000      -3.57760000      -1.33550000
H       -0.74950000      -2.67520000       0.82730000
