18
Properties=species:S:1:pos:R:3 gdb_94454=T pbc="F F F"
O        0.19660000       0.92460000      -0.75410000
C        0.03910000      -0.20820000       0.06590000
C        0.00190000      -0.03730000       1.60800000
C       -1.19150000      -1.03040000       1.63100000
C       -1.40980000      -0.77180000       0.11260000
C       -2.52500000       0.23890000      -0.26130000
O       -3.29880000      -0.44720000      -1.27790000
C       -2.69830000      -1.64620000      -1.42810000
N       -1.67750000      -1.93820000      -0.73380000
H        1.13300000       1.13440000      -0.81660000
H        0.71760000      -1.01850000      -0.22890000
H        0.89900000      -0.29750000       2.17390000
H       -0.30560000       0.97930000       1.87030000
H       -0.87850000      -2.06300000       1.79960000
H       -2.03030000      -0.79940000       2.29210000
H       -3.19480000       0.47180000       0.57160000
H       -2.13420000       1.16130000      -0.69360000
H       -3.16340000      -2.29080000      -2.16620000
