19
Properties=species:S:1:pos:R:3 gdb_116883=T pbc="F F F"
C       -0.17350000       1.63750000      -0.14090000
C       -0.27890000       0.11330000      -0.21610000
C        0.99380000      -0.53150000      -0.80280000
C        0.91760000      -1.98420000      -0.89740000
C        0.81550000      -3.18210000      -0.98000000
C        0.73910000      -4.64420000      -1.07280000
O        0.51560000      -5.12080000      -2.37240000
C        2.05110000      -5.21020000      -0.51830000
O        2.76150000      -5.91200000      -1.19120000
H        0.66670000       1.94810000       0.49020000
H       -0.02080000       2.07440000      -1.13400000
H       -1.08410000       2.07510000       0.27850000
H       -0.45920000      -0.30290000       0.78130000
H       -1.13730000      -0.17670000      -0.83170000
H        1.18590000      -0.11680000      -1.80150000
H        1.86130000      -0.25060000      -0.19030000
H       -0.06640000      -5.00020000      -0.40630000
H        1.33050000      -5.58920000      -2.61630000
H        2.30630000      -4.91810000       0.51810000
