19
Properties=species:S:1:pos:R:3 gdb_38057=T pbc="F F F"
C       -0.06320000       1.56050000       0.00750000
C        1.42250000       2.12140000       0.06930000
C        2.15670000       0.87950000       0.55430000
C        3.35860000      -0.04470000       0.13110000
O        2.44530000      -1.18260000       0.40050000
C        1.45450000      -0.24920000      -0.19720000
C       -0.01910000      -0.02700000       0.04490000
C        2.01870000      -0.12500000      -1.63000000
C        3.32370000       0.01950000      -1.40040000
H       -0.65000000       1.93270000       0.85100000
H       -0.56170000       1.91090000      -0.90000000
H        1.74980000       2.42510000      -0.92780000
H        1.49970000       2.98470000       0.73420000
H        2.00030000       0.73950000       1.62910000
H        4.30440000      -0.10550000       0.66750000
H       -0.31220000      -0.39990000       1.02960000
H       -0.68240000      -0.47310000      -0.70070000
H        1.45490000      -0.15850000      -2.55140000
H        4.16020000       0.14090000      -2.07240000
