17
Properties=species:S:1:pos:R:3 gdb_82800=T pbc="F F F"
O        0.13240000       1.42760000      -0.08600000
C        0.02410000       0.03820000      -0.02830000
C        0.13100000      -0.64800000       1.35250000
O       -0.82620000       0.10000000       2.09640000
C       -2.04740000      -0.16370000       1.28240000
C       -2.63190000      -1.41160000       1.89800000
C       -1.78670000      -2.41060000       1.60880000
C       -0.71420000      -1.86650000       0.72490000
C       -1.36350000      -0.65450000      -0.02120000
H       -0.19850000       1.74740000       0.76440000
H        0.68430000      -0.39570000      -0.78290000
H        1.04710000      -0.77960000       1.92510000
H       -2.65350000       0.74000000       1.25440000
H       -3.46800000      -1.42770000       2.58440000
H       -1.80530000      -3.41710000       2.00800000
H       -0.11170000      -2.55540000       0.13590000
H       -1.99270000      -0.78650000      -0.90000000
