23
Properties=species:S:1:pos:R:3 gdb_65132=T pbc="F F F"
C        0.68080000       0.15720000      -1.37550000
C        0.05160000       0.06800000       0.00570000
C        0.93140000      -0.48820000       1.10590000
C        0.59320000       0.97920000       1.08640000
C       -1.39330000      -0.37900000      -0.00390000
C       -2.58640000       0.20530000       0.71430000
C       -2.62620000       1.74190000       0.72240000
C       -2.48630000       1.74750000      -0.83030000
C       -2.50910000       0.21140000      -0.82310000
H        1.74260000       0.41640000      -1.31170000
H        0.60380000      -0.80180000      -1.90150000
H        0.18720000       0.91200000      -1.99660000
H        0.46020000      -1.09910000       1.86930000
H        1.93980000      -0.79470000       0.84800000
H        1.36980000       1.68570000       0.81080000
H       -0.08020000       1.33820000       1.85390000
H       -1.46740000      -1.46750000      -0.01750000
H       -3.19930000      -0.41860000       1.35550000
H       -3.60810000       2.10710000       1.03330000
H       -1.86720000       2.27310000       1.29990000
H       -3.35600000       2.18460000      -1.32550000
H       -1.58640000       2.21510000      -1.24020000
H       -3.06210000      -0.39590000      -1.53060000
