20
Properties=species:S:1:pos:R:3 gdb_97120=T pbc="F F F"
C        0.15650000       1.38920000      -0.05740000
N        0.30950000      -0.05960000      -0.08250000
C        0.57480000      -0.66500000       0.97980000
O        0.75900000      -0.19120000       2.26910000
C        0.96230000      -1.54850000       2.77600000
C        0.77030000      -2.12110000       1.35720000
C       -0.42550000      -3.05530000       1.14460000
C       -0.63810000      -3.37990000      -0.33070000
O       -0.28330000      -4.22440000       1.94650000
H        0.89610000       1.83940000      -0.72870000
H       -0.83190000       1.65120000      -0.45040000
H        0.26910000       1.83380000       0.93800000
H        1.95480000      -1.65380000       3.21950000
H        0.19030000      -1.82060000       3.49950000
H        1.67500000      -2.56230000       0.92560000
H       -1.32100000      -2.55990000       1.53970000
H        0.22890000      -3.91980000      -0.73380000
H       -1.52340000      -4.00840000      -0.45910000
H       -0.75520000      -2.46020000      -0.91060000
H        0.38690000      -4.78200000       1.53570000
