16
Properties=species:S:1:pos:R:3 gdb_50726=T pbc="F F F"
N        0.12220000       1.24190000       0.38590000
C        0.10520000       0.04010000      -0.01070000
O        1.24130000      -0.64950000      -0.30200000
C        1.12610000      -1.84450000      -1.09030000
O        0.08070000      -2.65510000      -0.69490000
C       -1.16460000      -1.99290000      -0.88730000
C       -1.20770000      -0.72390000      -0.03690000
C       -1.63460000      -1.01930000       1.41320000
O       -2.13900000      -2.05110000       1.76230000
H        1.08020000       1.59720000       0.40890000
H        1.02220000      -1.54400000      -2.14630000
H        2.05900000      -2.38780000      -0.93640000
H       -1.30090000      -1.75540000      -1.95260000
H       -1.94280000      -2.68570000      -0.56500000
H       -1.96370000      -0.02320000      -0.41210000
H       -1.46110000      -0.17250000       2.10730000
