17
Properties=species:S:1:pos:R:3 gdb_105596=T pbc="F F F"
C       -0.08420000       1.61120000      -0.02830000
C        0.12760000       0.09300000       0.04170000
C        0.76650000      -0.52730000      -1.22000000
C        0.62990000      -2.04760000      -1.40430000
O       -0.22460000      -1.83880000      -2.58330000
C       -0.14880000      -0.48310000      -2.46930000
O       -0.66510000       0.34890000      -3.14360000
C        2.15440000       0.01860000      -1.50390000
O        3.14090000      -0.66570000      -1.59550000
H        0.86080000       2.16180000      -0.02350000
H       -0.63420000       1.88830000      -0.93150000
H       -0.65960000       1.94570000       0.83930000
H        0.74900000      -0.16730000       0.90710000
H       -0.83950000      -0.39930000       0.19610000
H        1.54770000      -2.56830000      -1.67460000
H        0.07920000      -2.57740000      -0.62550000
H        2.20170000       1.11860000      -1.63140000
