20
Properties=species:S:1:pos:R:3 gdb_8402=T pbc="F F F"
C        0.04510000       1.52950000      -0.05900000
C       -0.01960000       0.00120000      -0.03130000
O        0.74100000      -0.53390000       1.05140000
C       -1.43730000      -0.52480000       0.00230000
C       -2.58830000      -0.26920000      -1.02120000
C       -3.19240000      -1.20370000       0.06450000
C       -1.87290000      -2.02180000       0.00000000
C       -2.50460000      -0.30270000       1.12870000
H        1.08700000       1.86020000      -0.06210000
H       -0.45220000       1.93210000      -0.94710000
H       -0.44770000       1.95590000       0.82310000
H        0.47240000      -0.39370000      -0.92970000
H        0.32950000      -0.22920000       1.86800000
H       -2.98680000       0.74830000      -1.07130000
H       -2.45610000      -0.69640000      -2.01970000
H       -4.20960000      -1.59460000       0.10120000
H       -1.68490000      -2.58120000      -0.92120000
H       -1.60720000      -2.60640000       0.88420000
H       -2.29990000      -0.76580000       2.09910000
H       -2.90040000       0.71070000       1.24350000
