22
Properties=species:S:1:pos:R:3 gdb_58696=T pbc="F F F"
C       -0.30090000       1.40620000       0.07520000
C        0.06290000      -0.08520000       0.06320000
C        0.73430000      -0.46400000      -1.26430000
C        0.93360000      -0.47920000       1.28630000
C        0.16960000      -0.41370000       2.65990000
C        0.01600000      -1.95570000       2.63870000
C        1.06540000      -2.03210000       1.50080000
C        2.20510000       0.23780000       1.26780000
N        3.21630000       0.80030000       1.26390000
H        0.59620000       2.02610000      -0.02510000
H       -0.96560000       1.64150000      -0.76140000
H       -0.81080000       1.70070000       0.99700000
H       -0.86340000      -0.66780000       0.16090000
H        1.66280000       0.09930000      -1.40520000
H        0.97700000      -1.52930000      -1.31640000
H        0.07200000      -0.23310000      -2.10410000
H        0.81210000      -0.06120000       3.46860000
H       -0.74630000       0.18000000       2.65910000
H        0.26440000      -2.48020000       3.56290000
H       -0.97810000      -2.27780000       2.32000000
H        0.81880000      -2.64770000       0.63380000
H        2.05840000      -2.31290000       1.85590000
