18
Properties=species:S:1:pos:R:3 gdb_126375=T pbc="F F F"
C        0.04230000       1.53360000      -0.14840000
C       -0.04260000       0.00870000       0.01470000
C       -1.45300000      -0.48450000       0.06080000
N       -2.40280000      -0.06790000       0.88390000
C       -3.47070000      -0.82420000       0.51780000
O       -4.63650000      -0.67480000       1.14770000
C       -5.69260000      -1.51590000       0.69150000
N       -3.26520000      -1.68230000      -0.47110000
N       -1.94910000      -1.43990000      -0.74960000
H        1.08420000       1.86500000      -0.12110000
H       -0.39450000       1.85260000      -1.09950000
H       -0.50500000       2.02930000       0.65640000
H        0.48890000      -0.49570000      -0.80060000
H        0.45830000      -0.28630000       0.94450000
H       -6.55900000      -1.26740000       1.30530000
H       -5.91180000      -1.33110000      -0.36530000
H       -5.43230000      -2.57240000       0.81390000
H       -1.49050000      -1.95800000      -1.48000000
