19
Properties=species:S:1:pos:R:3 gdb_115119=T pbc="F F F"
C       -0.22860000       1.63000000       0.13870000
C       -0.07840000       0.11380000      -0.02020000
C        0.84190000      -0.52620000       1.02610000
C        0.78980000      -2.06570000       1.08660000
N        2.13190000      -2.43970000       1.52510000
C        3.09710000      -1.49560000       1.25190000
N        4.36880000      -1.54280000       1.30510000
C        2.33550000      -0.23630000       0.84780000
O        2.83570000       0.77920000       0.44560000
H        0.74050000       2.12510000       0.05530000
H       -0.89440000       2.03500000      -0.62930000
H       -0.65660000       1.88090000       1.11600000
H       -1.06400000      -0.36450000       0.04900000
H        0.30670000      -0.11940000      -1.02070000
H        0.58470000      -0.13690000       2.02250000
H        0.03440000      -2.43110000       1.78870000
H        0.55300000      -2.47830000       0.09430000
H        2.38420000      -3.41070000       1.62330000
H        4.70070000      -2.47080000       1.57920000
