15
Properties=species:S:1:pos:R:3 gdb_9861=T pbc="F F F"
C       -0.04500000       1.51330000       0.00300000
C        0.00460000      -0.00880000      -0.00310000
C        1.34960000      -0.69690000      -0.22600000
C        0.72860000      -0.72260000       1.13630000
C       -1.15250000      -0.65510000      -0.54270000
C       -2.14170000      -1.17940000      -1.00350000
C       -3.25140000      -1.77980000      -1.52050000
N       -4.19730000      -2.29220000      -1.96130000
H        0.87710000       1.91700000       0.43100000
H       -0.15200000       1.90630000      -1.01220000
H       -0.88690000       1.87580000       0.60010000
H        1.35580000      -1.61260000      -0.80460000
H        2.19630000      -0.04220000      -0.40020000
H        1.14320000      -0.08590000       1.90990000
H        0.30920000      -1.65600000       1.49160000
