18
Properties=species:S:1:pos:R:3 gdb_808=T pbc="F F F"
C        1.08750000       0.51500000      -1.06560000
C        0.03880000       0.00710000      -0.05770000
C        0.68200000      -0.60040000       1.16600000
C        0.81670000      -2.09910000       1.27320000
C       -0.52410000      -2.81110000       1.52100000
N        1.15560000       0.07410000       2.14420000
O        0.98580000       1.46160000       1.96080000
H        1.74400000      -0.29510000      -1.39940000
H        0.59880000       0.93630000      -1.94930000
H        1.70650000       1.29090000      -0.60980000
H       -0.59610000       0.84250000       0.25090000
H       -0.60250000      -0.73850000      -0.53840000
H        1.26360000      -2.48170000       0.34540000
H        1.51120000      -2.32450000       2.08700000
H       -0.96540000      -2.48450000       2.46750000
H       -1.24750000      -2.60720000       0.72520000
H       -0.38030000      -3.89470000       1.56820000
H        1.36860000       1.81640000       2.76950000
