18
Properties=species:S:1:pos:R:3 gdb_95445=T pbc="F F F"
N       -0.00600000       1.10240000      -0.04870000
H       -0.15650000       0.12510000      -0.28630000
H        1.59630000       1.23360000       0.78010000
H       -0.34070000       1.65870000      -0.82840000
C       -0.71670000       1.44490000       1.19640000
C       -2.17600000       0.93830000       1.34150000
C       -2.34240000       0.59960000       2.84390000
C       -0.92310000       0.41410000       3.31100000
C       -0.03040000       0.85680000       2.42190000
C        1.44930000       0.84610000       2.64420000
O        1.95080000       0.57670000       3.70750000
O        2.18970000       1.15910000       1.56880000
H       -0.68200000       2.54170000       1.25990000
H       -2.91490000       1.65490000       0.97380000
H       -2.28360000       0.02350000       0.74650000
H       -2.81570000       1.42500000       3.39410000
H       -2.96990000      -0.28090000       3.01930000
H       -0.65250000       0.00540000       4.27720000
