13
Properties=species:S:1:pos:R:3 gdb_124042=T pbc="F F F"
C        0.01720000       1.41040000      -0.13390000
O        1.34430000       1.85850000       0.18090000
C        2.00220000       0.76870000       0.65950000
C        3.29530000       0.61880000       1.11040000
N        3.72630000      -0.58280000       1.54380000
N        2.92730000      -1.63170000       1.54600000
C        1.65360000      -1.53650000       1.11470000
C        1.16470000      -0.33080000       0.66170000
O       -0.06160000       0.01280000       0.18460000
H       -0.70840000       1.96430000       0.47190000
H       -0.17180000       1.55220000      -1.20370000
H        4.01150000       1.43160000       1.13980000
H        1.06020000      -2.44280000       1.14760000
