19
Properties=species:S:1:pos:R:3 gdb_67571=T pbc="F F F"
O       -0.07430000       1.37830000       0.09200000
C       -0.00860000      -0.01370000       0.05040000
C        0.90680000      -0.73710000       1.03900000
C        0.25530000      -1.62710000       2.07000000
C        0.59250000      -2.17220000       0.70110000
C       -0.43440000      -1.98080000      -0.41220000
C       -1.36250000      -0.76800000      -0.06700000
C       -1.43270000      -0.40740000      -1.57140000
C        0.03940000      -0.80180000      -1.33110000
H        0.82180000       1.72630000       0.03960000
H        1.91870000      -0.37440000       1.18940000
H        0.88230000      -1.95820000       2.89210000
H       -0.77990000      -1.46040000       2.34720000
H        1.36330000      -2.92750000       0.59850000
H       -0.88720000      -2.85630000      -0.87770000
H       -2.17850000      -0.75010000       0.65710000
H       -2.02280000      -1.07710000      -2.20290000
H       -1.62690000       0.64030000      -1.80550000
H        0.86250000      -0.82470000      -2.04940000
