17
Properties=species:S:1:pos:R:3 gdb_124339=T pbc="F F F"
C       -0.12140000       1.51190000      -0.02600000
C        0.05820000       0.01410000      -0.01960000
O        1.12970000      -0.54300000      -0.03590000
N       -1.13930000      -0.73640000       0.00740000
N       -2.34680000      -0.09110000       0.02550000
C       -3.23980000      -1.05830000       0.04820000
C       -2.63590000      -2.34170000       0.04530000
C       -1.28320000      -2.11520000       0.01880000
C       -0.15330000      -3.08910000       0.00420000
H        0.86830000       1.96710000      -0.04670000
H       -0.70720000       1.82550000      -0.89320000
H       -0.67590000       1.83690000       0.85730000
H       -4.29250000      -0.81320000       0.06610000
H       -3.12210000      -3.30430000       0.06050000
H        0.47300000      -2.96710000      -0.88330000
H        0.50510000      -2.95610000       0.86660000
H       -0.55800000      -4.10400000       0.01800000
