18
Properties=species:S:1:pos:R:3 gdb_11067=T pbc="F F F"
O       -0.03540000       1.36310000      -0.00810000
C        0.01500000      -0.04010000       0.00300000
C        0.70120000      -0.69200000       1.22970000
C        0.18720000      -2.16490000       1.16140000
C       -0.73320000      -2.12150000      -0.07750000
C       -1.36250000      -0.72690000       0.01490000
O        0.09640000      -2.02900000      -1.25090000
C        0.60840000      -0.68850000      -1.26860000
H        0.86430000       1.69810000       0.06830000
H        1.79260000      -0.61860000       1.17670000
H        0.37430000      -0.18340000       2.14130000
H        0.98710000      -2.89420000       1.01700000
H       -0.36720000      -2.44380000       2.06260000
H       -1.39670000      -2.97740000      -0.20150000
H       -1.91910000      -0.54820000       0.93820000
H       -1.97880000      -0.47260000      -0.85030000
H        0.26840000      -0.16120000      -2.16970000
H        1.70700000      -0.70570000      -1.26420000
