19
Properties=species:S:1:pos:R:3 gdb_56845=T pbc="F F F"
C       -0.00600000       1.69070000       0.20090000
C       -0.03360000       0.16290000      -0.00830000
C        0.70700000      -0.52690000       1.04850000
C        1.29940000      -1.08070000       1.93610000
C       -1.46110000      -0.37260000      -0.08160000
C       -2.41820000      -0.12810000      -1.23710000
C       -1.68890000      -0.27140000      -2.56850000
O       -1.11790000      -1.54640000      -2.16940000
C       -1.87120000      -1.51570000      -0.95260000
H        1.02230000       2.06040000       0.22820000
H       -0.53720000       2.19360000      -0.61270000
H       -0.48810000       1.96120000       1.14520000
H        0.45460000      -0.07130000      -0.96190000
H        1.83320000      -1.57750000       2.70770000
H       -1.98240000      -0.36990000       0.87380000
H       -3.40970000       0.28280000      -1.10330000
H       -2.36750000      -0.40920000      -3.41750000
H       -0.92300000       0.46920000      -2.82780000
H       -2.32660000      -2.44140000      -0.62010000
