17
Properties=species:S:1:pos:R:3 gdb_22398=T pbc="F F F"
O       -0.14930000       1.30410000       0.12420000
N       -0.00430000      -0.09480000       0.14650000
C       -1.11910000      -0.66640000      -0.02890000
C       -2.53640000      -0.22550000      -0.33790000
C       -2.81330000      -1.68730000      -0.77810000
C       -1.45460000      -2.13740000      -0.14950000
O       -3.98330000      -2.23720000      -0.20520000
C       -4.59140000      -3.24540000      -0.86390000
N       -5.56150000      -3.85110000      -0.33290000
H        0.75690000       1.60450000       0.25290000
H       -3.10480000       0.03110000       0.56200000
H       -2.66330000       0.56710000      -1.07780000
H       -2.82870000      -1.80410000      -1.86710000
H       -0.79300000      -2.76340000      -0.75230000
H       -1.61900000      -2.61450000       0.82250000
H       -4.16300000      -3.43820000      -1.85780000
H       -5.91860000      -4.56040000      -0.96950000
