17
Properties=species:S:1:pos:R:3 gdb_108813=T pbc="F F F"
O        0.13900000       1.37440000      -0.09260000
C        0.00820000      -0.01730000       0.10990000
C       -1.41000000      -0.50630000       0.09700000
C       -2.51030000       0.25360000       0.04610000
C       -3.77530000      -0.55900000       0.09120000
O       -4.75030000      -0.18760000      -0.85570000
C       -3.23470000      -1.97610000      -0.17220000
O       -3.89680000      -2.85960000      -0.65110000
C       -1.73670000      -1.98500000       0.13420000
H       -0.22250000       1.57690000      -0.96220000
H        0.59520000      -0.59530000      -0.62570000
H        0.46570000      -0.22450000       1.08670000
H       -2.51380000       1.33590000       0.02940000
H       -4.20710000      -0.53960000       1.11100000
H       -5.17620000      -1.01110000      -1.13280000
H       -1.18670000      -2.59550000      -0.59100000
H       -1.55850000      -2.43410000       1.12190000
