13
Properties=species:S:1:pos:R:3 gdb_131168=T pbc="F F F"
O        0.09700000       1.40220000       0.00640000
C        0.07300000       0.05190000      -0.01730000
C        0.03470000      -0.74970000      -1.13780000
N        0.01090000      -0.43440000      -2.49110000
C       -0.02660000      -1.35770000      -3.49510000
O       -0.04370000      -2.56040000      -3.31800000
N        0.02360000      -2.00610000      -0.62700000
N        0.05350000      -1.98990000       0.71340000
N        0.08300000      -0.72950000       1.08060000
H        0.12150000       1.66740000       0.93450000
H        0.02280000       0.54740000      -2.72340000
H       -0.04020000      -0.88740000      -4.49270000
H       -0.00290000      -2.85870000      -1.16880000
