23
Properties=species:S:1:pos:R:3 gdb_106796=T pbc="F F F"
C       -0.01610000       1.51590000      -0.04880000
C        0.00700000       0.00700000       0.04190000
C        1.29950000      -0.74680000      -0.17660000
C        0.63710000      -0.78030000       1.18450000
C        1.32390000      -0.13920000       2.35690000
O        2.26260000      -1.07320000       2.88520000
C       -0.24730000      -1.99020000       1.47010000
C       -1.12880000      -2.15530000       0.21300000
C       -1.26780000      -0.73060000      -0.36480000
H        0.91920000       1.96450000       0.29820000
H       -0.16480000       1.83870000      -1.08640000
H       -0.83430000       1.94060000       0.54570000
H        1.31340000      -1.64270000      -0.78940000
H        2.20360000      -0.15140000      -0.25810000
H        1.82860000       0.78890000       2.04770000
H        0.57630000       0.13240000       3.12130000
H        2.64030000      -0.69440000       3.68460000
H        0.33000000      -2.88940000       1.70420000
H       -0.86890000      -1.77110000       2.34870000
H       -0.63640000      -2.81140000      -0.51150000
H       -2.09660000      -2.61140000       0.43760000
H       -2.12890000      -0.21640000       0.08260000
H       -1.42740000      -0.73120000      -1.44950000
