13
Properties=species:S:1:pos:R:3 gdb_132113=T pbc="F F F"
N        0.09960000       1.36590000      -0.16400000
C       -0.01520000       0.00840000      -0.05880000
C       -1.17060000      -0.70490000      -0.01250000
F       -2.34080000      -0.04250000      -0.00070000
N       -1.20540000      -2.04430000       0.01990000
C       -0.08540000      -2.69690000       0.01230000
C        1.21650000      -2.05010000      -0.02410000
N        2.32680000      -2.66140000      -0.02390000
O        1.16600000      -0.64370000      -0.05620000
H        0.95790000       1.76080000       0.19170000
H       -0.73610000       1.88070000       0.06890000
H       -0.09190000      -3.78070000       0.03830000
H        3.11410000      -2.01450000      -0.05500000
