19
Properties=species:S:1:pos:R:3 gdb_67954=T pbc="F F F"
C        0.12530000       1.57670000      -0.15330000
C       -0.00560000       0.07130000       0.01140000
C       -1.39970000      -0.43650000       0.51670000
C       -0.70680000      -1.00710000       1.75900000
O       -1.09610000      -1.53760000       2.75900000
C        0.68820000      -0.60880000       1.25710000
C        1.49360000      -1.76750000       0.64150000
O        0.89290000      -2.01880000      -0.62180000
C        0.55160000      -0.74900000      -1.16090000
H        1.16770000       1.86940000      -0.31970000
H       -0.46090000       1.93270000      -1.00840000
H       -0.23410000       2.10790000       0.73410000
H       -2.13920000       0.34090000       0.73280000
H       -1.87050000      -1.20470000      -0.10540000
H        1.27440000       0.00820000       1.94200000
H        2.54720000      -1.46810000       0.52130000
H        1.45540000      -2.68980000       1.22660000
H       -0.16720000      -0.91120000      -1.96920000
H        1.44330000      -0.25190000      -1.58000000
