12
Properties=species:S:1:pos:R:3 gdb_21805=T pbc="F F F"
O       -0.38780000       0.96340000       1.03010000
C        0.05850000       1.17050000      -0.06460000
C        1.46690000       1.70640000      -0.32440000
C        1.45040000       2.88230000      -1.24800000
N        1.68030000       2.77050000      -2.53130000
O        1.54520000       4.02500000      -3.04980000
N        1.22690000       4.93370000      -2.08140000
C        1.16170000       4.25160000      -0.97310000
H       -0.52890000       0.97440000      -0.98810000
H        1.92620000       1.95240000       0.63580000
H        2.04180000       0.90100000      -0.79660000
H        0.92400000       4.73090000      -0.03590000
