20
Properties=species:S:1:pos:R:3 gdb_59148=T pbc="F F F"
C        0.97430000       0.99710000       1.02440000
C       -0.01480000       0.15520000       0.21620000
O       -1.22510000       0.88700000       0.02740000
C        0.61810000      -0.26100000      -1.11400000
C        0.75790000      -1.58170000      -1.75350000
C       -0.44460000      -2.54190000      -1.74390000
C       -1.70270000      -1.98780000      -1.11460000
C       -1.22680000      -1.44260000      -2.42180000
N       -0.03870000      -0.49130000      -2.44530000
H        1.88310000       0.42730000       1.24730000
H        1.25520000       1.89950000       0.47080000
H        0.51530000       1.30260000       1.96810000
H       -0.26170000      -0.73200000       0.80980000
H       -1.28010000       1.12280000      -0.90440000
H        1.48340000       0.36580000      -1.33570000
H        1.70570000      -1.90600000      -2.17560000
H       -0.34750000      -3.58170000      -2.02470000
H       -2.54500000      -2.66480000      -1.23590000
H       -1.75260000      -1.39760000      -0.21380000
H       -1.81600000      -1.45460000      -3.32960000
