21
Properties=species:S:1:pos:R:3 gdb_63828=T pbc="F F F"
C        0.31870000       1.36750000      -0.28910000
C        0.02310000      -0.09620000       0.01290000
C       -1.47620000      -0.36910000       0.04730000
O        0.66260000      -0.96180000      -0.97730000
C        1.46550000      -1.61220000       0.03920000
C        2.91150000      -1.19360000       0.05340000
C        3.16840000      -0.34500000       1.04930000
C        1.95230000      -0.03560000       1.89550000
C        0.81510000      -0.78470000       1.17310000
H        1.39340000       1.55650000      -0.33770000
H       -0.11100000       1.62940000      -1.26140000
H       -0.12480000       2.02660000       0.46520000
H       -1.93470000      -0.09770000      -0.90910000
H       -1.67310000      -1.42950000       0.22950000
H       -1.95990000       0.21470000       0.83860000
H        1.31990000      -2.69860000       0.01090000
H        3.63120000      -1.54980000      -0.67500000
H        4.13920000       0.09340000       1.25800000
H        2.08050000      -0.39750000       2.92400000
H        1.77290000       1.04330000       1.97750000
H        0.16400000      -1.32690000       1.85940000
