19
Properties=species:S:1:pos:R:3 gdb_75149=T pbc="F F F"
C        0.52930000       1.42430000       0.11630000
C        0.08740000       0.00130000      -0.01020000
C        0.15830000      -0.78320000      -1.08850000
C       -0.44650000      -2.14360000      -0.85770000
C       -0.53000000      -2.21980000       0.70800000
N        0.64520000      -2.84040000       1.33870000
C       -0.57700000      -0.72300000       1.14230000
C       -1.72060000      -2.96410000       1.14270000
N       -2.66570000      -3.55100000       1.45510000
H        1.26680000       1.54200000       0.92000000
H        0.97300000       1.79230000      -0.81250000
H       -0.31450000       2.07750000       0.37250000
H        0.56520000      -0.48160000      -2.04770000
H       -1.44020000      -2.22200000      -1.31850000
H        0.14970000      -2.97500000      -1.25040000
H        0.75240000      -3.79400000       1.00280000
H        1.47130000      -2.33050000       1.03470000
H       -0.06590000      -0.59990000       2.10250000
H       -1.60860000      -0.37620000       1.27980000
