19
Properties=species:S:1:pos:R:3 gdb_127119=T pbc="F F F"
C       -0.07940000       1.37010000       0.03510000
N        0.21260000      -0.04950000      -0.00960000
C       -0.18170000      -0.82050000       1.15770000
C        0.10010000      -0.67010000      -1.23830000
N       -0.01400000      -1.99860000      -1.36310000
N       -0.03230000      -2.18970000      -2.68800000
C       -0.15090000      -3.51040000      -3.26160000
N        0.04380000      -1.09810000      -3.42670000
C        0.12560000      -0.10810000      -2.53550000
H        0.49960000       1.90030000      -0.72610000
H       -1.14690000       1.60170000      -0.11960000
H        0.21780000       1.76400000       1.01060000
H       -1.27420000      -0.94030000       1.24280000
H        0.26230000      -1.81530000       1.10400000
H        0.18340000      -0.31590000       2.05670000
H       -1.08810000      -3.97830000      -2.94700000
H       -0.13680000      -3.39740000      -4.34470000
H        0.68430000      -4.13860000      -2.94010000
H        0.19500000       0.91770000      -2.85510000
