19
Properties=species:S:1:pos:R:3 gdb_98403=T pbc="F F F"
C        0.19030000       1.51040000      -0.24010000
C        0.05780000       0.00570000      -0.11370000
C        1.33590000      -0.84050000      -0.04990000
C        0.52110000      -0.66590000       1.18380000
O        0.94690000       0.18620000       2.20030000
C       -1.10080000      -0.68040000      -0.75140000
O       -1.22230000      -1.89460000      -0.74200000
C       -2.18880000       0.14490000      -1.42840000
O       -3.17840000      -0.67690000      -1.96730000
H        1.00850000       1.86560000       0.38750000
H        0.39280000       1.80950000      -1.27370000
H       -0.71570000       2.02680000       0.09250000
H        1.30580000      -1.80220000      -0.54860000
H        2.26630000      -0.28700000      -0.12000000
H       -0.08540000      -1.51170000       1.50260000
H        1.73450000      -0.19680000       2.60050000
H       -2.60730000       0.84350000      -0.68440000
H       -1.72150000       0.77210000      -2.20520000
H       -2.90020000      -1.57940000      -1.73830000
