19
Properties=species:S:1:pos:R:3 gdb_124539=T pbc="F F F"
C       -0.00230000       1.27540000      -0.41950000
C        0.01790000      -0.16340000       0.13060000
C        0.66660000      -0.23130000       1.51710000
C       -1.36670000      -0.74690000       0.11940000
N       -2.01090000      -1.11510000       1.21040000
N       -3.20630000      -1.55870000       0.70410000
C       -3.20970000      -1.43530000      -0.64100000
N       -4.24430000      -1.86420000      -1.45080000
N       -2.06770000      -0.92020000      -1.05020000
H        1.01650000       1.66640000      -0.50810000
H       -0.47490000       1.30810000      -1.40420000
H       -0.56200000       1.93730000       0.25070000
H        0.61300000      -0.76910000      -0.56650000
H        1.68610000       0.16470000       1.47590000
H        0.09870000       0.35830000       2.24290000
H        0.70740000      -1.25810000       1.88930000
H       -3.88800000      -1.97440000       1.31520000
H       -5.17190000      -1.66960000      -1.09970000
H       -4.12870000      -1.52590000      -2.39650000
