14
Properties=species:S:1:pos:R:3 gdb_42486=T pbc="F F F"
O       -0.04910000      -0.09950000       0.17990000
C        0.04380000       1.08270000      -0.00690000
O        1.16210000       1.80520000      -0.01500000
C        2.38250000       1.06140000       0.23010000
C        3.51670000       2.04080000       0.19710000
C        4.86060000       1.60550000      -0.20250000
O        4.04010000       2.36480000      -1.08800000
C       -1.11550000       1.94670000      -0.26250000
N       -2.06260000       2.57830000      -0.45560000
H        2.30170000       0.56870000       1.20420000
H        2.49750000       0.29800000      -0.54360000
H        3.41860000       2.88810000       0.87560000
H        5.72860000       2.12330000       0.20100000
H        5.03000000       0.56960000      -0.49360000
