13
Properties=species:S:1:pos:R:3 gdb_128713=T pbc="F F F"
C        0.06820000       1.39240000       0.00690000
O       -0.00940000      -0.04030000       0.00250000
C       -1.23260000      -0.57360000       0.01070000
N       -2.28890000       0.16280000       0.02200000
O       -3.49650000      -0.52630000       0.02950000
C       -3.58840000      -1.91580000       0.02520000
O       -4.68010000      -2.39720000       0.03230000
N       -2.39880000      -2.66520000       0.01290000
C       -1.29110000      -2.02400000       0.00620000
H        1.13210000       1.62590000      -0.00100000
H       -0.42610000       1.80460000      -0.87710000
H       -0.41140000       1.79840000       0.90190000
H       -0.35160000      -2.57720000      -0.00340000
