18
Properties=species:S:1:pos:R:3 gdb_12965=T pbc="F F F"
C       -0.06820000       1.54250000      -0.05050000
C        0.08130000       0.04100000       0.09640000
C        1.33390000      -0.76440000      -0.17970000
C        2.58270000      -0.01300000       0.29110000
C        2.00700000      -0.04650000       1.75200000
O        1.81640000       1.15620000       2.47090000
C        0.73520000      -0.70170000       1.23160000
O        0.08820000      -1.71600000       1.92100000
H        0.76900000       2.08530000       0.38900000
H       -0.15410000       1.82330000      -1.10650000
H       -0.97550000       1.88720000       0.45800000
H       -0.79670000      -0.51620000      -0.22920000
H        1.32970000      -1.59950000      -0.86900000
H        3.50940000      -0.58170000       0.18630000
H        2.72930000       0.98560000      -0.12940000
H        2.55840000      -0.78020000       2.35460000
H        2.66660000       1.43400000       2.82630000
H       -0.64650000      -1.32680000       2.40740000
