19
Properties=species:S:1:pos:R:3 gdb_94418=T pbc="F F F"
O        0.55700000       0.77780000      -0.66490000
C        0.13000000      -0.28190000       0.14170000
C       -0.02290000      -0.09210000       1.66840000
C       -1.28430000      -0.99370000       1.60750000
C       -1.37350000      -0.76210000       0.07870000
C       -2.42170000       0.17530000      -0.58920000
C       -2.65310000      -0.87460000      -1.72130000
C       -1.76570000      -1.84250000      -0.92200000
O       -1.50470000      -3.00990000      -1.00590000
H        0.13660000       1.58520000      -0.35070000
H        0.78180000      -1.12850000      -0.09390000
H        0.81070000      -0.39340000       2.30680000
H       -0.28690000       0.94510000       1.90530000
H       -1.06220000      -2.04180000       1.82530000
H       -2.15120000      -0.68540000       2.19560000
H       -3.30440000       0.34550000       0.03170000
H       -2.03730000       1.13810000      -0.93300000
H       -3.67810000      -1.21080000      -1.89780000
H       -2.20670000      -0.59980000      -2.68230000
