20
Properties=species:S:1:pos:R:3 gdb_102861=T pbc="F F F"
C       -0.14290000       1.56180000       0.22630000
C       -0.00980000       0.04200000       0.10510000
C        0.68060000      -0.41640000      -1.18230000
C        0.83880000      -1.94410000      -1.23890000
C        1.60130000      -2.41670000      -2.45930000
O        2.61210000      -3.07070000      -2.41100000
O       -0.10320000      -0.02160000      -2.31880000
C        0.34760000       0.97840000      -3.10380000
N       -0.35920000       1.39250000      -4.06290000
H        0.83720000       2.05170000       0.20320000
H       -0.74870000       1.97410000      -0.58520000
H       -0.62410000       1.83170000       1.17060000
H        0.56330000      -0.35280000       0.95240000
H       -1.00010000      -0.42720000       0.14670000
H        1.67150000       0.05670000      -1.25170000
H        1.35620000      -2.30540000      -0.34650000
H       -0.16680000      -2.38470000      -1.26790000
H        1.15860000      -2.11320000      -3.43200000
H        1.34360000       1.34400000      -2.81770000
H        0.13090000       2.13230000      -4.56130000
