19
Properties=species:S:1:pos:R:3 gdb_67819=T pbc="F F F"
C        0.01630000       1.53060000       0.00260000
C        0.02080000       0.01790000      -0.08590000
C        0.58440000      -0.62960000      -1.31800000
C        0.08320000      -1.86680000      -1.42020000
C       -0.72220000      -2.15690000      -0.17400000
C        0.32660000      -2.20730000       1.00520000
C        0.27080000      -0.71180000       1.32340000
O       -1.15510000      -0.56410000       1.61230000
C       -1.30600000      -0.73930000       0.18990000
H        1.03740000       1.92500000       0.05680000
H       -0.46370000       1.97520000      -0.87600000
H       -0.52430000       1.85960000       0.89410000
H        1.28020000      -0.14960000      -1.99590000
H        0.31380000      -2.60060000      -2.18340000
H       -1.42050000      -2.99110000      -0.21460000
H       -0.03060000      -2.77660000       1.86620000
H        1.29990000      -2.58370000       0.68520000
H        0.92590000      -0.28700000       2.08390000
H       -2.27510000      -0.44240000      -0.21530000
