21
Properties=species:S:1:pos:R:3 gdb_61070=T pbc="F F F"
C       -0.02520000       1.58850000      -0.12460000
C        0.02290000       0.06210000       0.00990000
C        0.76670000      -0.34540000       1.27540000
O        1.33740000      -1.39730000       1.42160000
C       -1.39430000      -0.54770000       0.04150000
C       -1.47910000      -2.07500000      -0.06520000
C       -2.78800000      -2.36930000       0.68150000
C       -2.75800000      -1.31900000       1.79920000
O       -2.01190000      -0.20770000       1.29130000
H        0.97920000       2.02390000      -0.11970000
H       -0.51140000       1.87880000      -1.06060000
H       -0.59430000       2.02720000       0.70070000
H        0.55530000      -0.38450000      -0.83820000
H        0.74610000       0.40940000       2.09250000
H       -1.97470000      -0.08720000      -0.77540000
H       -1.48540000      -2.41430000      -1.10400000
H       -0.62610000      -2.53670000       0.44030000
H       -3.64940000      -2.20460000       0.02550000
H       -2.84840000      -3.38990000       1.06640000
H       -3.75580000      -0.97240000       2.08980000
H       -2.25730000      -1.70640000       2.69730000
