19
Properties=species:S:1:pos:R:3 gdb_91835=T pbc="F F F"
C        0.12240000       1.59140000       0.00000000
C        0.05390000       0.06630000      -0.01310000
C        0.80340000      -0.59880000      -1.20100000
C        1.23620000      -1.96760000      -0.69270000
N        2.43990000      -1.92320000       0.14780000
C        1.10770000      -1.97840000       0.80500000
C        0.61890000      -0.60520000       1.26820000
C        0.73710000      -3.16850000       1.51660000
N        0.44610000      -4.12580000       2.09880000
H        1.16000000       1.93500000       0.08060000
H       -0.30020000       2.01500000      -0.91700000
H       -0.43520000       2.00780000       0.84540000
H       -0.99900000      -0.23420000      -0.09110000
H        0.16390000      -0.68040000      -2.08410000
H        1.68950000      -0.01950000      -1.48180000
H        1.03720000      -2.86430000      -1.27020000
H        2.87270000      -2.84470000       0.18270000
H        1.46720000      -0.04380000       1.67250000
H       -0.13740000      -0.68640000       2.05240000
