20
Properties=species:S:1:pos:R:3 gdb_111891=T pbc="F F F"
C       -0.15230000       1.49580000       0.09730000
C       -0.01200000       0.01100000      -0.00380000
C        0.12720000      -0.74310000      -1.09800000
C        0.16920000      -2.21400000      -0.75160000
C        1.31880000      -3.03660000      -1.33430000
O        1.22470000      -4.39590000      -0.95360000
N        0.16930000      -2.26820000       0.73950000
C        1.30200000      -1.59930000       1.40520000
C        0.01640000      -0.87380000       1.20540000
H        0.66280000       1.93350000       0.68690000
H       -0.15390000       1.96720000      -0.88860000
H       -1.08570000       1.76850000       0.60550000
H        0.19030000      -0.37120000      -2.11470000
H       -0.75710000      -2.71020000      -1.07810000
H        1.27230000      -3.01030000      -2.42860000
H        2.28590000      -2.59950000      -1.03770000
H        1.03080000      -4.40310000      -0.00890000
H        1.55030000      -2.02460000       2.37390000
H        2.15050000      -1.26260000       0.81550000
H       -0.65550000      -0.68350000       2.03940000
