24
Properties=species:S:1:pos:R:3 gdb_109782=T pbc="F F F"
C       -0.64010000       2.28870000       0.22860000
C       -0.85490000       1.26600000      -0.89390000
C       -1.79470000       0.14900000      -0.48390000
C       -1.88810000      -1.16960000      -1.22930000
C       -1.04540000      -1.48220000      -2.44820000
C       -1.28980000      -1.12580000       0.16070000
N        0.13000000      -1.30740000       0.29370000
C        0.66750000      -1.29320000       1.65030000
C        0.57340000      -2.56650000       0.88340000
H        0.02120000       3.09910000      -0.09420000
H       -1.58860000       2.73890000       0.54340000
H       -0.18970000       1.81720000       1.10820000
H       -1.26470000       1.77600000      -1.77580000
H        0.11010000       0.84830000      -1.19100000
H       -2.73940000       0.51120000      -0.08170000
H       -2.88900000      -1.59300000      -1.27390000
H       -0.00980000      -1.16600000      -2.31450000
H       -1.03720000      -2.56050000      -2.64310000
H       -1.44550000      -0.98880000      -3.34100000
H       -1.89330000      -1.54470000       0.97230000
H        1.62380000      -0.79350000       1.77760000
H       -0.03260000      -1.15530000       2.47280000
H       -0.19020000      -3.27820000       1.19350000
H        1.45930000      -3.01290000       0.44040000
