11
Properties=species:S:1:pos:R:3 gdb_131906=T pbc="F F F"
O        0.10280000       1.30770000      -0.07080000
C        0.06540000      -0.02840000      -0.04830000
C       -0.01330000      -0.88390000      -1.11250000
O       -0.02370000      -2.15380000      -0.60150000
C        0.04830000      -1.97610000       0.71610000
N        0.10430000      -0.74660000       1.12120000
N        0.05660000      -3.16490000       1.54580000
O       -0.00130000      -4.23840000       0.96300000
O        0.12060000      -2.98310000       2.75070000
H        0.15760000       1.61360000       0.84360000
H       -0.06480000      -0.77790000      -2.18030000
