11
Properties=species:S:1:pos:R:3 gdb_914=T pbc="F F F"
N       -0.11900000       1.32600000       0.00870000
C        0.02320000       0.06240000       0.00090000
N       -1.14740000      -0.73170000       0.00340000
C       -1.09350000      -2.07300000      -0.00410000
N        0.01610000      -2.75000000      -0.01410000
C        1.14250000      -1.95270000      -0.01630000
N        1.21500000      -0.65940000      -0.00980000
H        0.80230000       1.76050000       0.00580000
H       -2.02700000      -0.23360000       0.01120000
H       -2.04880000      -2.59380000      -0.00130000
H        2.08330000      -2.50050000      -0.02470000
