16
Properties=species:S:1:pos:R:3 gdb_84971=T pbc="F F F"
C       -0.23880000       1.57280000       0.03660000
C        0.07430000       0.06240000       0.00790000
N        0.75150000      -0.30240000      -1.22270000
C        1.95480000      -0.93590000      -1.38910000
O        2.41660000      -1.18580000      -2.48020000
C        2.69430000      -1.30970000      -0.08670000
O        3.76850000      -1.86210000      -0.14220000
C        2.03390000      -0.96500000       1.18190000
C        0.84800000      -0.34990000       1.21750000
H        0.68690000       2.15420000       0.02620000
H       -0.83650000       1.85250000      -0.83620000
H       -0.80990000       1.83040000       0.93330000
H       -0.89150000      -0.47010000       0.05010000
H        0.29410000      -0.06340000      -2.09280000
H        2.56390000      -1.24500000       2.08690000
H        0.37750000      -0.10950000       2.16730000
