20
Properties=species:S:1:pos:R:3 gdb_39117=T pbc="F F F"
C       -0.37180000       0.95220000       1.30280000
C        0.60170000       1.24600000       0.19240000
O        1.85860000       0.62280000       0.46030000
C        1.24340000      -0.69310000       0.44740000
C       -0.14750000      -0.09610000       0.24380000
N       -1.16210000      -0.74550000      -0.48400000
C       -1.02690000      -1.00370000      -1.93530000
C       -2.56230000      -0.85520000      -2.06020000
C       -2.50540000      -0.16720000      -0.67370000
H       -0.01190000       0.81300000       2.32070000
H       -1.32020000       1.47620000       1.22280000
H        0.59080000       2.12270000      -0.44460000
H        1.59850000      -1.27240000      -0.41330000
H        1.42360000      -1.25440000       1.37210000
H       -0.48030000      -0.20580000      -2.46210000
H       -0.58190000      -1.96990000      -2.19280000
H       -2.93780000      -0.26020000      -2.89250000
H       -3.08170000      -1.81450000      -2.03270000
H       -3.24200000      -0.45680000       0.08260000
H       -2.50620000       0.93090000      -0.76490000
