20
Properties=species:S:1:pos:R:3 gdb_126605=T pbc="F F F"
C       -0.16110000       1.49750000       0.03900000
C       -0.21160000      -0.01680000      -0.17570000
C        0.88260000      -0.49450000      -1.13710000
N        0.87220000      -1.93470000      -1.33770000
C        0.08410000      -2.68690000      -2.14510000
C        0.45650000      -3.98710000      -1.88900000
C       -0.04520000      -5.26460000      -2.47850000
N        1.44160000      -3.95850000      -0.94440000
N        1.68810000      -2.72260000      -0.61270000
H        0.80100000       1.80690000       0.46130000
H       -0.30070000       2.04020000      -0.90260000
H       -0.94600000       1.82100000       0.72820000
H       -0.08750000      -0.54220000       0.77750000
H       -1.19160000      -0.30910000      -0.57120000
H        0.77900000      -0.01050000      -2.11410000
H        1.87240000      -0.25030000      -0.74360000
H       -0.64160000      -2.25280000      -2.81260000
H        0.76060000      -5.80970000      -2.98040000
H       -0.44760000      -5.92360000      -1.70250000
H       -0.83580000      -5.07600000      -3.20930000
