18
Properties=species:S:1:pos:R:3 gdb_103522=T pbc="F F F"
C       -0.04360000       1.55640000      -0.00040000
C       -0.01200000       0.01680000      -0.05670000
C       -1.44130000      -0.55060000      -0.05760000
O       -2.10350000      -0.06980000      -1.21730000
C        0.82850000      -0.52680000      -1.19180000
C        1.84620000      -1.22650000      -0.68480000
N        1.80110000      -1.24100000       0.72090000
C        0.71790000      -0.52980000       1.19340000
O        0.40960000      -0.37300000       2.35430000
H        0.96630000       1.97090000      -0.06130000
H       -0.63580000       1.94640000      -0.83040000
H       -0.49380000       1.88010000       0.94310000
H       -1.39880000      -1.65050000      -0.05290000
H       -1.94330000      -0.22690000       0.86580000
H       -3.01410000      -0.37670000      -1.19160000
H        0.61600000      -0.36570000      -2.23690000
H        2.64380000      -1.75100000      -1.19140000
H        2.46320000      -1.69370000       1.32880000
