20
Properties=species:S:1:pos:R:3 gdb_62564=T pbc="F F F"
C        0.02000000       1.53870000       0.02910000
C        0.04020000       0.02250000       0.02070000
C       -1.19310000      -0.60290000      -0.61080000
C        1.33070000      -0.78260000      -0.27530000
C        2.48010000      -0.12740000       0.40210000
N        3.64560000       0.19970000       0.07420000
O        1.83530000      -0.02750000       1.63590000
C        0.69320000      -0.77530000       1.10800000
C        0.13990000      -1.82260000       2.01620000
H        0.88230000       1.95680000       0.54940000
H        0.01080000       1.92800000      -0.99440000
H       -0.88460000       1.90050000       0.53110000
H       -1.31740000      -0.23920000      -1.63640000
H       -1.13280000      -1.69420000      -0.65310000
H       -2.09540000      -0.33370000      -0.05080000
H        1.38000000      -1.53890000      -1.04590000
H        4.14820000       0.60410000       0.86630000
H       -0.26180000      -1.35970000       2.92450000
H       -0.66870000      -2.37510000       1.53280000
H        0.91970000      -2.53040000       2.31270000
