20
Properties=species:S:1:pos:R:3 gdb_121976=T pbc="F F F"
O       -0.03010000       1.45200000      -0.06480000
C        0.04840000       0.03650000      -0.03820000
C       -1.37370000      -0.50660000       0.00990000
C       -1.42420000      -2.03590000       0.04490000
C       -2.85630000      -2.58470000       0.03330000
O       -3.59240000      -2.15960000      -1.09840000
C       -2.85290000      -4.12780000       0.15180000
C       -4.19670000      -4.69930000       0.18050000
N       -5.25640000      -5.15780000       0.21480000
H        0.86410000       1.80480000      -0.08660000
H        0.56560000      -0.35260000      -0.93160000
H        0.61380000      -0.31630000       0.84070000
H       -1.87360000      -0.09540000       0.89520000
H       -1.92710000      -0.13810000      -0.85920000
H       -0.88260000      -2.45100000      -0.81950000
H       -0.90630000      -2.41100000       0.93750000
H       -3.40670000      -2.17670000       0.88880000
H       -3.13260000      -2.45680000      -1.89230000
H       -2.30400000      -4.55990000      -0.69510000
H       -2.32110000      -4.43290000       1.06010000
