19
Properties=species:S:1:pos:R:3 gdb_86143=T pbc="F F F"
C        0.44100000       1.52330000      -0.13050000
C        0.01790000       0.06190000       0.06980000
C        0.21750000      -0.85360000      -1.17020000
C        1.46210000      -1.70990000      -0.86960000
O        2.61960000      -0.92210000      -1.09210000
C        1.34030000      -1.97670000       0.63670000
O        2.55040000      -2.35780000       1.23870000
C        0.87050000      -0.61130000       1.14280000
O        1.24280000      -0.15080000       2.19480000
H        1.46410000       1.56720000      -0.51270000
H       -0.21910000       2.01830000      -0.84850000
H        0.39960000       2.06660000       0.81700000
H       -1.02530000       0.03880000       0.40870000
H       -0.64690000      -1.50700000      -1.32470000
H        0.36820000      -0.28120000      -2.08840000
H        1.49000000      -2.63140000      -1.46610000
H        3.29270000      -1.27730000      -0.49400000
H        0.54490000      -2.71950000       0.82130000
H        2.62840000      -1.80100000       2.03040000
