23
Properties=species:S:1:pos:R:3 gdb_83822=T pbc="F F F"
C       -0.11590000       1.56180000       0.27530000
C       -0.02790000       0.08230000      -0.03350000
C        0.59550000      -0.48150000      -1.29520000
C        1.32380000       0.35440000      -2.32730000
C        2.54470000      -0.38380000      -2.90010000
C        3.67250000      -0.67080000      -1.93790000
C        3.71730000      -0.55810000      -0.60820000
C        2.61540000      -0.11340000       0.33550000
C        1.25380000      -0.72800000       0.04180000
H        0.75580000       2.12480000      -0.06600000
H       -0.99510000       2.00500000      -0.20580000
H       -0.21030000       1.72950000       1.35420000
H       -0.90920000      -0.46070000       0.30110000
H        0.07850000      -1.33490000      -1.72950000
H        0.64200000       0.60960000      -3.14830000
H        1.65370000       1.30770000      -1.90320000
H        2.21610000      -1.33330000      -3.35130000
H        2.95610000       0.19600000      -3.73860000
H        4.58210000      -1.01620000      -2.42910000
H        4.66390000      -0.79920000      -0.12790000
H        2.90500000      -0.37270000       1.36030000
H        2.55600000       0.98160000       0.33180000
H        1.14850000      -1.73450000       0.43840000
