18
Properties=species:S:1:pos:R:3 gdb_41279=T pbc="F F F"
C        0.04150000       1.51550000      -0.18440000
C        1.59950000       1.57610000       0.06350000
C        1.56230000       0.14400000       0.65350000
N        1.65380000      -0.35760000       2.04130000
C        0.91770000      -1.55100000       1.46040000
C       -0.49670000      -0.93000000       1.25700000
C        0.06620000       0.03330000       0.21110000
O        0.44760000      -0.88190000      -0.87840000
C        1.52690000      -1.22920000      -0.00880000
H       -0.52180000       2.13050000       0.52180000
H       -0.30570000       1.72130000      -1.19850000
H        2.20720000       1.68160000      -0.83730000
H        1.90900000       2.33170000       0.78760000
H        2.61980000      -0.64070000       2.21700000
H        1.03070000      -2.50660000       1.97080000
H       -1.24560000      -1.61230000       0.85150000
H       -0.84480000      -0.46120000       2.17800000
H        2.32510000      -1.84010000      -0.43950000
