16
Properties=species:S:1:pos:R:3 gdb_46254=T pbc="F F F"
N       -0.01730000       1.21080000      -0.31840000
C       -0.01040000      -0.01000000      -0.04080000
O        0.99460000      -0.83400000       0.42850000
C        0.09060000      -1.98150000       0.51290000
C       -1.04240000      -1.12840000      -0.09170000
O       -2.26300000      -1.00410000       0.65450000
C       -3.02240000      -1.44180000      -0.48590000
C       -2.86140000      -0.48340000      -1.61850000
C       -1.79230000      -1.52890000      -1.35510000
H        0.89270000       1.64410000      -0.15190000
H        0.45730000      -2.81850000      -0.08610000
H       -0.08150000      -2.27970000       1.54930000
H       -3.85620000      -2.10940000      -0.30950000
H       -3.47260000      -0.68530000      -2.49290000
H       -2.65840000       0.56280000      -1.41350000
H       -1.46940000      -2.26610000      -2.07680000
