20
Properties=species:S:1:pos:R:3 gdb_103238=T pbc="F F F"
C        0.29950000       1.25630000       1.04680000
C        0.09040000       0.16590000      -0.01160000
C       -1.24360000      -0.55910000       0.11290000
O       -2.27510000       0.17120000      -0.53270000
C       -1.54950000      -2.01290000      -0.07500000
C       -0.69790000      -2.98550000       0.76220000
C        0.25340000      -2.41080000       1.74600000
N       -1.18250000      -2.39820000       2.06590000
C       -1.90610000      -1.35390000       1.24670000
H        1.23000000       1.80370000       0.87020000
H       -0.51580000       1.98880000       1.03060000
H        0.33980000       0.83430000       2.05630000
H        0.07940000       0.62020000      -1.00920000
H        0.92780000      -0.53390000      -0.01260000
H       -2.45310000       0.95610000      -0.00260000
H       -2.21070000      -2.35020000      -0.86230000
H       -0.75320000      -4.05710000       0.59630000
H        0.78820000      -3.13770000       2.35310000
H        0.79310000      -1.48900000       1.59320000
H       -2.87260000      -1.03260000       1.61490000
