15
Properties=species:S:1:pos:R:3 gdb_30086=T pbc="F F F"
C       -0.01150000       1.45790000      -0.01670000
N        0.00990000      -0.00320000      -0.01270000
C        0.04290000      -0.67420000      -1.23150000
C        0.06340000      -2.01160000      -1.28580000
N        0.05150000      -2.74370000      -0.10940000
C        0.01920000      -2.19430000       1.15610000
O        0.01010000      -2.86890000       2.16000000
C       -0.00390000      -0.66160000       1.21060000
O       -0.03310000      -0.08290000       2.27500000
H        0.88290000       1.85000000      -0.51110000
H       -0.89940000       1.82400000      -0.54160000
H       -0.03420000       1.79060000       1.01920000
H        0.05090000      -0.05750000      -2.11780000
H        0.08920000      -2.56380000      -2.21270000
H        0.06670000      -3.75370000      -0.13480000
