13
Properties=species:S:1:pos:R:3 gdb_20693=T pbc="F F F"
C       -0.02680000       1.49610000       0.01070000
C        0.00230000      -0.00560000      -0.01460000
N       -0.03470000      -0.61570000      -1.16360000
C       -0.00750000      -2.00960000      -1.18740000
O       -0.03690000      -2.68850000      -2.18630000
N        0.05910000      -2.62530000       0.07970000
N        0.09770000      -2.02580000       1.26350000
C        0.07030000      -0.72610000       1.23190000
H        0.86830000       1.88910000       0.50610000
H       -0.07860000       1.88420000      -1.00630000
H       -0.89090000       1.85380000       0.58220000
H        0.08000000      -3.63650000       0.09560000
H        0.10090000      -0.21570000       2.18730000
