19
Properties=species:S:1:pos:R:3 gdb_75429=T pbc="F F F"
C        0.07530000       1.55040000      -0.01840000
C       -0.01990000       0.05240000      -0.02970000
C       -0.02930000      -0.67580000      -1.14890000
C       -0.11850000      -2.17230000      -1.09960000
O        1.06690000      -2.84700000      -0.61440000
C        1.61230000      -2.66410000       0.60860000
O        2.48750000      -3.41430000       0.95180000
C        1.21690000      -1.50870000       1.53810000
C       -0.04940000      -0.66700000       1.30030000
H        0.96430000       1.88540000       0.53150000
H        0.12340000       1.96240000      -1.02950000
H       -0.78910000       1.99200000       0.49370000
H        0.03490000      -0.20190000      -2.12410000
H       -0.97250000      -2.50090000      -0.49400000
H       -0.24900000      -2.58930000      -2.09930000
H        1.19530000      -1.95250000       2.53790000
H        2.09160000      -0.84660000       1.53050000
H       -0.13140000       0.05220000       2.12150000
H       -0.93880000      -1.30660000       1.36730000
