14
Properties=species:S:1:pos:R:3 gdb_17162=T pbc="F F F"
O       -0.08500000      -0.01240000       0.06300000
C        0.04400000       1.18610000      -0.00470000
C        1.35270000       1.88440000       0.00340000
C        2.79100000       1.34380000       0.09180000
C        3.00430000       2.87260000       0.00700000
C        1.78150000       3.07170000      -0.94150000
O        1.15570000       4.11310000      -0.13980000
C        1.71330000       3.17930000       0.82770000
H       -0.83430000       1.86430000      -0.07970000
H        3.06960000       0.86190000       1.03140000
H        3.13860000       0.75300000      -0.75840000
H        3.92460000       3.45550000       0.00700000
H        1.72630000       3.13430000      -2.02800000
H        1.57510000       3.37270000       1.89110000
