19
Properties=species:S:1:pos:R:3 gdb_92469=T pbc="F F F"
O        0.10210000       1.41740000       0.07200000
C        0.03310000       0.00300000       0.05820000
C       -1.43180000      -0.53270000       0.02970000
C       -1.65480000      -1.34410000      -1.27270000
C       -1.31450000      -0.40980000      -2.45580000
O        0.02480000       0.07850000      -2.32150000
C        0.73200000      -0.53870000      -1.21110000
C        0.61980000      -2.03610000      -1.27730000
C       -0.64300000      -2.46470000      -1.30950000
H       -0.04280000       1.68960000      -0.84460000
H        0.55780000      -0.33650000       0.95540000
H       -1.64110000      -1.16090000       0.89900000
H       -2.10710000       0.32740000       0.07160000
H       -2.68570000      -1.69550000      -1.35530000
H       -1.40950000      -0.93980000      -3.41210000
H       -1.99330000       0.45340000      -2.46980000
H        1.75430000      -0.16510000      -1.28110000
H        1.49680000      -2.67160000      -1.31080000
H       -0.93890000      -3.50510000      -1.38660000
