15
Properties=species:S:1:pos:R:3 gdb_45069=T pbc="F F F"
O        0.04110000       0.03360000      -0.41090000
C       -0.01560000       1.17040000      -0.04700000
C       -1.25970000       1.95800000       0.37090000
C       -0.72380000       3.23590000       0.97390000
C        0.23630000       3.11300000       2.09740000
N        0.74640000       3.37160000       0.74040000
C        1.19930000       2.15880000       0.04740000
C        2.36700000       1.54140000       0.66810000
N        3.28030000       1.05020000       1.17660000
H       -1.86430000       2.14810000      -0.52400000
H       -1.86810000       1.35420000       1.04970000
H       -1.29080000       4.15170000       0.84460000
H        0.37660000       3.93620000       2.79000000
H        0.39760000       2.12750000       2.53170000
H        1.46010000       2.43020000      -0.98480000
