19
Properties=species:S:1:pos:R:3 gdb_72958=T pbc="F F F"
C       -0.04690000       1.55070000       0.00090000
C        0.01140000       0.05090000       0.06740000
C       -1.23000000      -0.85570000      -0.00830000
C       -0.58010000      -1.82610000       1.02600000
C        0.63910000      -0.90590000       1.08280000
C        1.24460000      -0.76710000      -0.31910000
N        1.25760000      -1.79130000      -1.32840000
C        2.47750000       0.00310000      -0.30130000
N        3.46240000       0.60960000      -0.27420000
H        0.92530000       2.00380000       0.20970000
H       -0.36340000       1.88380000      -0.99470000
H       -0.76930000       1.93930000       0.72670000
H       -2.10920000      -0.35040000       0.39770000
H       -1.49670000      -1.26330000      -0.98880000
H       -1.12680000      -1.85880000       1.96990000
H       -0.39690000      -2.85240000       0.69380000
H        1.24470000      -0.68720000       1.95440000
H        1.42400000      -2.71400000      -0.94700000
H        0.41290000      -1.80630000      -1.88320000
