19
Properties=species:S:1:pos:R:3 gdb_6022=T pbc="F F F"
C        0.12640000       1.53740000      -0.08300000
C        0.02430000       0.01640000      -0.00290000
O        0.76500000      -0.50050000       1.09310000
C       -1.44520000      -0.54230000       0.03670000
C       -1.39450000      -2.08500000      -0.03180000
C       -2.19190000      -0.09650000       1.31230000
C       -2.16370000      -0.04220000      -1.14440000
N       -2.71870000       0.35220000      -2.07910000
H        1.17770000       1.82710000      -0.16020000
H       -0.40670000       1.92810000      -0.95320000
H       -0.29160000       2.01600000       0.81060000
H        0.49520000      -0.41510000      -0.89380000
H        0.63680000       0.08620000       1.84560000
H       -0.80180000      -2.45740000       0.80590000
H       -2.40000000      -2.51000000       0.02090000
H       -0.92920000      -2.42060000      -0.96270000
H       -2.29200000       0.98980000       1.37210000
H       -3.19620000      -0.52640000       1.33690000
H       -1.65000000      -0.45410000       2.19240000
