19
Properties=species:S:1:pos:R:3 gdb_91069=T pbc="F F F"
C        0.59640000       1.39510000       0.14360000
C        0.03540000      -0.00780000      -0.05250000
C        0.60480000      -0.75040000      -1.30010000
C        1.27900000      -2.01570000      -0.75430000
C        2.80280000      -1.97830000      -0.51130000
O        3.08960000      -0.74440000       0.15220000
C        2.63090000      -1.84400000       0.94700000
C        1.09020000      -1.93020000       0.79320000
O        0.31610000      -0.81320000       1.11070000
H        1.68720000       1.35860000       0.19470000
H        0.29850000       2.04280000      -0.68850000
H        0.21210000       1.83110000       1.07020000
H       -1.05920000       0.05340000      -0.12290000
H       -0.19770000      -1.00070000      -1.99810000
H        1.31860000      -0.11250000      -1.82690000
H        0.92850000      -2.94550000      -1.20390000
H        3.60060000      -2.43050000      -1.08880000
H        3.26210000      -2.15110000       1.77300000
H        0.68140000      -2.82830000       1.26940000
