20
Properties=species:S:1:pos:R:3 gdb_7604=T pbc="F F F"
C       -0.19110000       1.47580000       0.10130000
C        0.04340000      -0.01700000       0.05890000
C        1.35170000      -0.61080000      -0.33850000
C        0.89170000      -0.75100000       1.11240000
C        1.62110000       0.02950000       2.19000000
C        0.35390000      -2.11510000       1.45260000
C        0.47500000      -2.59990000       2.88680000
O       -0.17320000      -2.81140000       0.60720000
H        0.71680000       2.03500000       0.34240000
H       -0.53750000       1.82670000      -0.87700000
H       -0.95690000       1.74270000       0.83780000
H       -0.81890000      -0.60280000      -0.24590000
H        1.34120000      -1.51610000      -0.93400000
H        2.18820000       0.05920000      -0.51280000
H        2.00170000       0.97670000       1.80200000
H        0.97420000       0.26420000       3.04240000
H        2.48380000      -0.52740000       2.57130000
H       -0.01370000      -1.90370000       3.57710000
H        0.01390000      -3.58430000       2.96970000
H        1.52550000      -2.66040000       3.19160000
