21
Properties=species:S:1:pos:R:3 gdb_40193=T pbc="F F F"
C        0.12850000       1.51630000      -0.00600000
C        1.31130000       0.58510000       0.13040000
C       -0.08660000       0.02850000      -0.00070000
C       -0.73530000      -0.70050000       1.17550000
C       -0.66900000      -2.18340000       0.75600000
C       -0.91130000      -2.14770000      -0.75150000
O       -2.29520000      -1.87780000      -1.08630000
C       -1.95410000      -0.61350000      -1.69270000
C       -0.47910000      -0.73870000      -1.25410000
H       -0.18140000       2.07970000       0.86820000
H        0.00760000       2.05220000      -0.94220000
H        1.98540000       0.49140000      -0.71520000
H        1.79930000       0.51900000       1.09760000
H       -0.23660000      -0.49640000       2.12720000
H       -1.78310000      -0.39580000       1.28130000
H        0.33140000      -2.59130000       0.94620000
H       -1.39740000      -2.81820000       1.26820000
H       -0.53930000      -3.02890000      -1.28560000
H       -2.11410000      -0.62940000      -2.77880000
H       -2.52000000       0.22110000      -1.26040000
H        0.25880000      -0.67320000      -2.05490000
