19
Properties=species:S:1:pos:R:3 gdb_13940=T pbc="F F F"
C       -0.14500000       1.48350000      -0.18030000
N       -0.08410000       0.06880000       0.10340000
C       -1.29270000      -0.65230000       0.53280000
C       -0.39090000      -1.55060000       1.41310000
C        0.69970000      -0.47180000       1.21830000
C        2.19780000      -0.78130000       1.05960000
O        2.52350000      -0.07010000       2.27160000
C        1.16530000       0.37950000       2.43570000
H        0.86100000       1.87070000      -0.37380000
H       -0.74240000       1.64820000      -1.08360000
H       -0.59330000       2.08340000       0.63310000
H       -1.98390000      -0.03550000       1.13090000
H       -1.85940000      -1.12380000      -0.27760000
H       -0.71770000      -1.73340000       2.43770000
H       -0.13410000      -2.49980000       0.93790000
H        2.48530000      -1.83950000       1.10720000
H        2.65370000      -0.32410000       0.17070000
H        1.07500000       1.46680000       2.31150000
H        0.75100000       0.09730000       3.41210000
