19
Properties=species:S:1:pos:R:3 gdb_60239=T pbc="F F F"
C        0.10100000       1.53950000      -0.04580000
C       -0.00620000       0.01730000       0.03190000
C       -1.44820000      -0.47330000       0.00490000
O        0.65050000      -0.61640000      -1.08000000
C        2.03070000      -0.72440000      -0.99810000
C        2.66910000      -1.63320000      -2.06360000
O        3.52910000      -0.53460000      -2.50540000
C        2.92920000       0.36090000      -1.65700000
O        3.13210000       1.52880000      -1.56820000
H        1.14170000       1.86980000      -0.07960000
H       -0.39890000       1.90640000      -0.94800000
H       -0.38200000       1.99480000       0.82490000
H        0.48000000      -0.33530000       0.95650000
H       -1.93530000      -0.16550000      -0.92560000
H       -1.48820000      -1.56380000       0.07020000
H       -2.01020000      -0.05130000       0.84300000
H        2.36850000      -0.94200000       0.02620000
H        3.26380000      -2.47830000      -1.71390000
H        1.97640000      -1.93120000      -2.85230000
