13
Properties=species:S:1:pos:R:3 gdb_5434=T pbc="F F F"
C        0.08710000       1.48500000       0.06120000
C       -0.04130000       0.00750000       0.04300000
C       -1.11840000      -0.83440000      -0.08360000
C       -0.60150000      -2.17930000      -0.02680000
C        0.73500000      -2.04880000       0.12830000
O        1.08550000      -0.72880000       0.17180000
C       -2.46720000      -0.43340000      -0.23890000
N       -3.57000000      -0.10170000      -0.36570000
H        0.73100000       1.83520000      -0.75280000
H       -0.89770000       1.94170000      -0.05230000
H        0.52690000       1.83130000       1.00270000
H       -1.16910000      -3.09270000      -0.09460000
H        1.54670000      -2.75030000       0.22070000
