19
Properties=species:S:1:pos:R:3 gdb_91025=T pbc="F F F"
C       -1.03290000       0.99020000       0.76510000
C       -0.43520000      -0.39680000       0.89210000
O        0.19260000      -0.85280000      -0.33530000
C        1.38030000      -1.26100000       0.36200000
C        2.46710000      -0.18590000       0.36390000
O        3.19460000      -0.38630000       1.57880000
C        1.96820000       0.37160000       1.64270000
C        2.05730000       1.72840000       2.26460000
C        0.84960000      -0.67900000       1.71710000
H       -0.29070000       1.71370000       0.41980000
H       -1.85090000       0.97470000       0.03790000
H       -1.44000000       1.32540000       1.72520000
H       -1.22200000      -1.10890000       1.17950000
H        1.66080000      -2.30060000       0.17980000
H        2.97520000       0.28530000      -0.46990000
H        2.94030000       2.25560000       1.89410000
H        1.17070000       2.33000000       2.04990000
H        2.14810000       1.64130000       3.35340000
H        0.74310000      -1.24080000       2.64480000
