16
Properties=species:S:1:pos:R:3 gdb_105776=T pbc="F F F"
O        0.07650000       1.32610000       0.16890000
C       -0.01170000      -0.06670000       0.03440000
C       -1.47060000      -0.53460000      -0.11600000
C       -1.62580000      -2.07940000       0.03200000
O       -2.00020000      -2.23270000       1.38850000
C       -2.81150000      -1.12230000       1.65490000
O       -2.19650000      -0.01600000       1.00700000
C       -2.06870000      -0.04250000      -1.36820000
N       -2.53150000       0.30500000      -2.36790000
H       -0.49960000       1.57200000       0.90310000
H        0.56360000      -0.34580000      -0.85380000
H        0.40200000      -0.60140000       0.90390000
H       -2.39760000      -2.46260000      -0.64760000
H       -0.68950000      -2.61490000      -0.13690000
H       -3.83080000      -1.26660000       1.25950000
H       -2.83550000      -0.93970000       2.73150000
