12
Properties=species:S:1:pos:R:3 gdb_131889=T pbc="F F F"
N        0.06480000       1.39540000       0.07900000
C       -0.00420000       0.05740000       0.02880000
C       -1.11830000      -0.75830000       0.01840000
O       -0.69700000      -2.06650000      -0.00820000
C        0.63590000      -1.96100000      -0.01550000
N        1.11660000      -0.75410000       0.00440000
N       -2.47500000      -0.44380000       0.01090000
O       -2.73400000       0.77530000       0.02350000
O       -3.30710000      -1.34410000      -0.00890000
H        0.95270000       1.84420000      -0.06240000
H       -0.79930000       1.90700000      -0.00920000
H        1.19410000      -2.88460000      -0.03680000
