19
Properties=species:S:1:pos:R:3 gdb_126553=T pbc="F F F"
C        0.00070000       1.55750000       0.10130000
C        0.01110000       0.02780000       0.08420000
C       -1.39490000      -0.56860000      -0.12130000
C       -1.39380000      -2.06040000      -0.10940000
N       -1.46610000      -2.82160000      -1.19960000
N       -1.39890000      -4.04300000      -0.68180000
C       -1.44590000      -5.25150000      -1.47860000
N       -1.29240000      -4.05990000       0.64020000
N       -1.28700000      -2.80760000       1.01970000
H        1.00850000       1.95760000       0.24770000
H       -0.38580000       1.96320000      -0.84030000
H       -0.63070000       1.94050000       0.91070000
H        0.67040000      -0.33320000      -0.71430000
H        0.42220000      -0.35690000       1.02430000
H       -2.05800000      -0.21370000       0.67560000
H       -1.81120000      -0.22670000      -1.07390000
H       -0.61000000      -5.26530000      -2.18140000
H       -1.37520000      -6.09490000      -0.79300000
H       -2.38550000      -5.29390000      -2.03360000
