13
Properties=species:S:1:pos:R:3 gdb_24998=T pbc="F F F"
O        0.04810000       0.04760000       0.15140000
C       -0.01640000       1.22640000       0.06020000
O       -1.15660000       1.97420000      -0.05320000
C       -0.73710000       3.29950000      -0.19130000
C        0.57800000       3.31590000      -0.10840000
O        1.20940000       4.48910000      -0.02310000
C        0.08950000       5.44310000      -0.20280000
C       -1.28150000       4.67750000      -0.03450000
O        1.10510000       2.07710000       0.03120000
H        0.23680000       6.23680000       0.52850000
H        0.18340000       5.84560000      -1.21370000
H       -1.99240000       5.00400000      -0.79960000
H       -1.73930000       4.85500000       0.94750000
