16
Properties=species:S:1:pos:R:3 gdb_49611=T pbc="F F F"
O       -0.61490000       0.71730000      -0.63380000
C        0.15470000       0.98420000       0.25090000
C        1.31500000       1.95900000       0.11270000
C        1.35920000       2.80570000      -1.14120000
C        0.23720000       3.78950000      -1.39040000
C        1.49680000       4.24340000      -0.69450000
N        1.49120000       4.21530000       0.74110000
C        1.29910000       2.97240000       1.28590000
O        1.11560000       2.71040000       2.45300000
H        0.07750000       0.53100000       1.26080000
H        2.22810000       1.35760000       0.23120000
H        1.91740000       2.44380000      -1.99440000
H        0.08700000       4.09850000      -2.41890000
H       -0.67070000       3.71350000      -0.80230000
H        2.18870000       4.93480000      -1.16060000
H        1.31520000       5.03240000       1.30590000
