19
Properties=species:S:1:pos:R:3 gdb_67027=T pbc="F F F"
C       -0.07760000       1.56490000      -0.06260000
C       -0.04230000       0.06970000       0.01460000
C        0.52250000      -1.01250000      -0.82820000
O        1.18110000      -1.69510000       0.20260000
C        0.44010000      -0.84630000       1.20260000
C        1.36990000      -0.33340000       2.26620000
C       -0.75710000      -1.68190000       1.57770000
C       -1.56870000      -1.75570000       0.51190000
C       -1.03930000      -0.90610000      -0.57550000
H        0.88710000       2.00710000       0.20990000
H       -0.31550000       1.89070000      -1.08060000
H       -0.84180000       1.98060000       0.60430000
H        0.94250000      -1.06240000      -1.82640000
H        2.19990000       0.22560000       1.82640000
H        0.83050000       0.32030000       2.95970000
H        1.78620000      -1.16920000       2.83760000
H       -0.81980000      -2.26410000       2.48830000
H       -2.42980000      -2.40450000       0.40570000
H       -1.63540000      -0.60670000      -1.43020000
