17
Properties=species:S:1:pos:R:3 gdb_34479=T pbc="F F F"
C       -0.21650000      -0.96410000       0.40660000
C       -0.14460000       0.19280000       0.06620000
C       -0.02030000       1.52280000      -0.37650000
C       -1.06490000       2.38880000      -0.52530000
C       -1.87390000       2.67750000       0.74470000
C       -0.83860000       3.85930000       0.85940000
C        0.61360000       3.68640000       0.25100000
C        1.25470000       2.33380000      -0.09480000
C       -0.57670000       3.84400000      -0.62030000
H       -0.29180000      -1.97960000       0.70730000
H       -2.87370000       3.10340000       0.60730000
H       -1.89550000       1.88550000       1.49750000
H       -1.01730000       4.74390000       1.46700000
H        1.25240000       4.54220000       0.46190000
H        1.79130000       1.84930000       0.72790000
H        1.96380000       2.44600000      -0.92630000
H       -0.79810000       4.57450000      -1.38690000
