22
Properties=species:S:1:pos:R:3 gdb_36965=T pbc="F F F"
C        0.07010000       1.48130000      -0.12420000
C       -0.02520000      -0.02440000      -0.40180000
C       -1.41150000      -0.56510000      -0.15090000
C       -1.65170000      -1.90530000       0.39640000
O       -1.78730000      -0.74490000       1.21910000
C        1.47570000       2.03820000      -0.34640000
N        1.50670000       3.47900000      -0.12230000
C        1.76830000       3.91210000       1.24690000
C        2.80710000       4.05880000       0.19020000
H       -0.62930000       2.02850000      -0.76750000
H       -0.23950000       1.67360000       0.90990000
H        0.25250000      -0.23210000      -1.44450000
H        0.68430000      -0.56970000       0.23250000
H       -2.20100000      -0.12350000      -0.76340000
H       -2.57880000      -2.42990000       0.16890000
H       -0.80310000      -2.54730000       0.63110000
H        2.19490000       1.50480000       0.30480000
H        1.79070000       1.85540000      -1.38200000
H        1.20120000       4.77220000       1.59100000
H        1.93470000       3.14430000       2.00160000
H        3.66560000       3.39030000       0.24400000
H        3.01320000       5.02830000      -0.25440000
