25
Properties=species:S:1:pos:R:3 gdb_60169=T pbc="F F F"
C        0.10450000       1.52640000      -0.00550000
C        0.05450000      -0.00470000       0.07990000
C        0.64840000      -0.49570000       1.40700000
C       -1.38520000      -0.51000000      -0.14480000
C       -1.50510000      -2.01690000      -0.26020000
C       -1.87040000      -2.90430000       0.92190000
C       -2.81770000      -2.74650000      -0.24460000
C       -4.14040000      -2.03290000      -0.07860000
O       -2.86450000      -3.80750000      -1.17060000
H        1.12840000       1.89720000       0.11050000
H       -0.27660000       1.88690000      -0.96700000
H       -0.50350000       1.98260000       0.78530000
H        0.67360000      -0.40700000      -0.73550000
H        0.06270000      -0.12390000       2.25700000
H        0.66390000      -1.58710000       1.46530000
H        1.67520000      -0.13580000       1.53200000
H       -2.01940000      -0.14100000       0.67250000
H       -1.77280000      -0.04800000      -1.06320000
H       -0.79410000      -2.46730000      -0.94920000
H       -1.35560000      -3.85360000       1.02250000
H       -2.12480000      -2.42020000       1.86020000
H       -4.06890000      -1.19740000       0.62210000
H       -4.49400000      -1.64980000      -1.04140000
H       -4.90150000      -2.72220000       0.30850000
H       -3.43240000      -4.49300000      -0.80040000
