16
Properties=species:S:1:pos:R:3 gdb_31093=T pbc="F F F"
C        0.03450000       1.31530000       0.12090000
O       -0.07720000       0.01910000      -0.45920000
C       -1.26650000      -0.60270000      -0.23330000
C       -1.40760000      -1.91070000       0.11750000
O       -0.54050000      -2.91990000       0.38630000
N       -2.77290000      -2.13630000       0.17140000
C       -3.37660000      -0.94560000      -0.13760000
N       -4.76710000      -0.84460000      -0.24260000
N       -2.50190000      -0.00040000      -0.37820000
H        1.01480000       1.70050000      -0.16760000
H       -0.75020000       1.97980000      -0.25270000
H       -0.03330000       1.26580000       1.21610000
H        0.34630000      -2.55290000       0.29450000
H       -3.21700000      -3.03370000       0.26600000
H       -5.24530000      -1.03080000       0.63360000
H       -5.00370000       0.09150000      -0.54960000
