15
Properties=species:S:1:pos:R:3 gdb_21318=T pbc="F F F"
C        0.12160000       1.41910000       0.04920000
O        0.25590000       0.01820000       0.12280000
C        0.54130000      -0.56480000      -1.12980000
C        0.61700000      -2.04900000      -0.95290000
N        1.52670000      -2.74670000      -1.58980000
O        1.29750000      -4.07330000      -1.23930000
C        0.25950000      -4.12270000      -0.39110000
C       -0.22780000      -2.87930000      -0.16070000
H        1.04800000       1.89950000      -0.30170000
H       -0.69630000       1.71550000      -0.62660000
H       -0.10300000       1.77670000       1.05650000
H       -0.25270000      -0.31590000      -1.85580000
H        1.49050000      -0.19580000      -1.54610000
H       -0.00980000      -5.10600000      -0.03750000
H       -1.04270000      -2.57930000       0.47490000
