16
Properties=species:S:1:pos:R:3 gdb_24187=T pbc="F F F"
C       -0.18870000       1.49850000      -0.09890000
C        1.36300000       1.81290000       0.11770000
C        2.15200000       1.94360000       1.41490000
C        2.73200000       0.75750000       1.73630000
C        2.21310000      -0.31180000       0.86860000
C        1.39800000      -1.43160000       1.09460000
C        0.14830000      -1.21180000       0.42390000
C        0.25220000       0.00750000      -0.24000000
N        1.56710000       0.38920000      -0.12430000
H       -0.79740000       1.65780000       0.79020000
H       -0.64910000       1.99190000      -0.95870000
H        1.77210000       2.47160000      -0.65910000
H        2.36260000       2.89050000       1.89740000
H        3.39280000       0.60250000       2.57990000
H        1.61410000      -2.26240000       1.75080000
H       -0.72140000      -1.84730000       0.50920000
