15
Properties=species:S:1:pos:R:3 gdb_125638=T pbc="F F F"
C       -0.36770000       1.35640000       0.24740000
C       -0.04080000      -0.09030000       0.05560000
N        0.26590000      -0.55930000      -1.15120000
N        0.49590000      -1.87950000      -0.96280000
C        0.35540000      -2.23980000       0.33160000
O        0.59470000      -3.53290000       0.69210000
C       -0.33580000      -4.15240000       1.48880000
O       -0.15820000      -5.24580000       1.91670000
C        0.00430000      -1.11400000       1.04000000
H        0.32280000       1.83160000       0.95240000
H       -0.30010000       1.87910000      -0.70880000
H       -1.38010000       1.48840000       0.64410000
H        0.76910000      -2.46600000      -1.73340000
H       -1.22130000      -3.51650000       1.65650000
H       -0.16260000      -1.03360000       2.10130000
