16
Properties=species:S:1:pos:R:3 gdb_50414=T pbc="F F F"
O        0.01890000      -0.07660000      -0.22070000
C        0.01410000       1.09820000       0.03200000
C        1.25810000       1.97250000       0.02040000
C        1.14010000       2.99710000      -1.15340000
C        0.81110000       4.29960000      -0.47240000
C        0.92860000       4.23640000       0.84930000
C        1.38600000       2.86160000       1.30930000
C        0.64090000       2.35850000       2.46840000
N        0.05670000       1.97570000       3.38940000
H       -0.93200000       1.64190000       0.25230000
H        2.11670000       1.30970000      -0.09130000
H        2.08120000       3.06260000      -1.71300000
H        0.37540000       2.69920000      -1.88170000
H        0.54040000       5.19040000      -1.02760000
H        0.76940000       5.04440000       1.55200000
H        2.44020000       2.90200000       1.61620000
