19
Properties=species:S:1:pos:R:3 gdb_100403=T pbc="F F F"
C       -0.12680000       1.99770000      -0.56260000
C        0.36270000       0.62260000      -0.11770000
C       -0.78160000      -0.25220000       0.37810000
O       -0.66210000      -1.08920000       1.24450000
N        0.97340000      -0.07380000      -1.25180000
C        1.71270000      -1.10390000      -1.03980000
N        1.99040000      -1.69120000       0.15890000
C        2.39010000      -1.70570000      -2.26370000
O        2.15430000      -0.94750000      -3.41070000
H        0.71130000       2.58130000      -0.95100000
H       -0.86680000       1.89940000      -1.36320000
H       -0.57960000       2.54690000       0.26930000
H        1.07720000       0.71900000       0.71430000
H       -1.74800000      -0.12080000      -0.15500000
H        1.32320000      -1.58430000       0.91360000
H        2.50010000      -2.56040000       0.14760000
H        3.47080000      -1.78200000      -2.05830000
H        2.01940000      -2.73830000      -2.38590000
H        1.54680000      -0.24700000      -3.10950000
