17
Properties=species:S:1:pos:R:3 gdb_78582=T pbc="F F F"
O        0.30890000       1.45520000      -0.12540000
C        0.14550000       0.06410000      -0.04460000
C        0.05120000      -0.63310000       1.32870000
C       -1.47110000      -0.27270000       1.48400000
C       -1.85280000      -1.74530000       1.78900000
C       -3.18900000      -2.20170000       1.46140000
C       -4.29890000      -2.57760000       1.18940000
C       -0.74440000      -1.82960000       0.70530000
C       -1.26550000      -0.55920000      -0.04980000
H       -0.32010000       1.87270000       0.47330000
H        0.86250000      -0.36610000      -0.75070000
H        0.78260000      -0.69860000       2.13580000
H       -1.89970000       0.62200000       1.93830000
H       -1.54780000      -2.09900000       2.78070000
H       -5.27830000      -2.91070000       0.95010000
H       -0.31810000      -2.72170000       0.24630000
H       -2.03850000      -0.53880000      -0.81720000
