18
Properties=species:S:1:pos:R:3 gdb_105737=T pbc="F F F"
C        0.06870000       1.51080000       0.10360000
C        0.01380000      -0.00740000      -0.09350000
C        0.74680000      -0.53370000      -1.34940000
C        0.58740000      -2.06490000      -1.53170000
O        0.04030000      -2.20510000      -2.86810000
C       -0.15490000      -0.94710000      -3.30890000
N        0.17140000       0.04370000      -2.58520000
C        2.22130000      -0.12150000      -1.29890000
O        3.11530000      -0.85220000      -0.95700000
H        1.08250000       1.86120000       0.32160000
H       -0.28500000       2.02890000      -0.79110000
H       -0.56490000       1.80470000       0.94530000
H        0.43040000      -0.52130000       0.78190000
H       -1.03120000      -0.32810000      -0.18200000
H        1.54010000      -2.59380000      -1.47870000
H       -0.12270000      -2.50730000      -0.82750000
H       -0.59510000      -0.88080000      -4.29810000
H        2.40890000       0.92450000      -1.61500000
