16
Properties=species:S:1:pos:R:3 gdb_20846=T pbc="F F F"
C        0.03010000       1.43140000      -0.42580000
C       -0.09760000       0.08550000       0.30660000
C       -1.44790000      -0.54740000       0.15090000
N       -2.26810000      -0.64450000       1.19130000
N       -3.38520000      -1.24020000       0.68940000
C       -3.27510000      -1.51360000      -0.62750000
O       -4.31250000      -2.11130000      -1.25410000
C       -2.03010000      -1.08140000      -1.03150000
H        1.02870000       1.85740000      -0.28650000
H       -0.13920000       1.31710000      -1.50140000
H       -0.70370000       2.14980000      -0.04810000
H        0.67440000      -0.60140000      -0.06290000
H        0.08480000       0.22480000       1.37650000
H       -4.16920000      -1.43690000       1.28690000
H       -4.08070000      -2.23770000      -2.17920000
H       -1.60470000      -1.14350000      -2.02010000
