15
Properties=species:S:1:pos:R:3 gdb_56078=T pbc="F F F"
C       -0.06970000       1.43610000      -0.17450000
C       -0.26410000      -0.06860000      -0.13520000
O       -1.15030000      -0.60680000       0.49920000
N        0.63660000      -0.78590000      -0.88610000
C        0.50530000      -2.22390000      -1.03480000
C        0.28320000      -2.63280000      -2.41760000
C        0.12380000      -2.96280000      -3.56860000
C       -0.05880000      -3.33400000      -4.86980000
N       -0.21050000      -3.64800000      -5.97780000
H       -0.71960000       1.85970000      -0.94740000
H       -0.37370000       1.85320000       0.78610000
H        0.96080000       1.72860000      -0.39270000
H        1.31950000      -0.30360000      -1.44680000
H        1.38890000      -2.74470000      -0.64270000
H       -0.34910000      -2.50970000      -0.41010000
