17
Properties=species:S:1:pos:R:3 gdb_128429=T pbc="F F F"
C        0.31170000       1.43840000      -0.04060000
N        0.40210000      -0.01970000      -0.04640000
C        0.38530000      -0.59970000       1.30120000
C        0.59540000      -2.07670000       1.22290000
N       -0.12380000      -2.95700000       1.85800000
O        0.39130000      -4.17530000       1.54050000
N        1.45660000      -4.05940000       0.65970000
C        1.59540000      -2.77330000       0.46360000
N        2.57050000      -2.18210000      -0.30220000
H        1.20720000       1.85600000       0.43170000
H        0.27260000       1.80470000      -1.06990000
H       -0.56660000       1.82760000       0.50050000
H       -0.37620000      -0.40300000      -0.57460000
H        1.21560000      -0.14610000       1.85930000
H       -0.53470000      -0.38860000       1.86840000
H        3.02760000      -2.80080000      -0.95630000
H        2.25790000      -1.30330000      -0.70040000
