19
Properties=species:S:1:pos:R:3 gdb_116830=T pbc="F F F"
C        0.02870000       1.57770000       0.01050000
C       -0.00820000       0.03720000       0.00230000
C       -1.36040000      -0.50160000       0.01230000
C       -2.49250000      -0.93200000       0.02070000
C       -3.76430000      -1.41440000       0.03020000
C       -4.89730000      -1.84180000       0.03880000
C       -6.24990000      -2.37350000       0.04880000
C       -6.28490000      -3.90750000       0.04130000
O       -7.65080000      -4.28380000       0.05220000
H        1.06390000       1.93110000       0.00260000
H       -0.48240000       1.98260000      -0.86680000
H       -0.46540000       1.97270000       0.90200000
H        0.52490000      -0.33790000      -0.88140000
H        0.54170000      -0.34770000       0.87130000
H       -6.79340000      -2.02030000       0.93420000
H       -6.80990000      -2.01130000      -0.82270000
H       -5.76450000      -4.27980000      -0.85340000
H       -5.74790000      -4.28890000       0.92220000
H       -7.70010000      -5.24400000       0.04740000
