17
Properties=species:S:1:pos:R:3 gdb_77629=T pbc="F F F"
C       -0.00950000       1.54430000      -0.01460000
C        0.05410000       0.03660000      -0.10020000
C        0.66930000      -0.75970000      -1.22990000
N       -0.05620000      -1.79260000      -1.85740000
C        1.97540000      -0.09940000      -1.68480000
O        2.46550000      -0.01850000      -0.31950000
C        1.32790000      -0.73410000       0.16720000
C        1.50640000      -1.73230000       1.16640000
N        1.63650000      -2.55260000       1.97310000
H        0.96280000       1.99200000      -0.23110000
H       -0.74620000       1.94800000      -0.71680000
H       -0.30070000       1.85450000       0.99330000
H       -0.81300000      -0.49470000       0.28640000
H       -0.79330000      -1.43960000      -2.45730000
H        0.53510000      -2.41820000      -2.39290000
H        2.60860000      -0.77170000      -2.27660000
H        1.91870000       0.88200000      -2.16840000
