17
Properties=species:S:1:pos:R:3 gdb_60958=T pbc="F F F"
O       -0.17320000       1.38920000       0.16520000
C       -0.02810000       0.00280000       0.02150000
C        0.75670000      -0.31100000      -1.23710000
O        1.17470000       0.56340000      -1.95710000
C        0.65530000      -0.61900000       1.24790000
C        2.02470000      -0.00520000       1.68010000
C        1.48030000       0.03530000       3.11580000
O        1.98780000       0.14430000       4.19260000
C        0.04770000      -0.24610000       2.63700000
H        0.25440000       1.78090000      -0.61340000
H       -1.01770000      -0.47680000      -0.09650000
H        0.92990000      -1.38380000      -1.45820000
H        0.71920000      -1.70380000       1.12010000
H        2.94050000      -0.57560000       1.51100000
H        2.14760000       1.00960000       1.28680000
H       -0.53290000       0.68060000       2.58650000
H       -0.51970000      -1.00310000       3.18290000
