24
Properties=species:S:1:pos:R:3 gdb_101574=T pbc="F F F"
C        0.03850000       1.52370000      -0.11060000
C       -0.02650000      -0.00420000      -0.06120000
C        0.65340000      -0.69970000      -1.25190000
C        0.69240000      -2.22320000      -1.07740000
N        0.00240000      -0.33710000      -2.50790000
C        0.67570000       0.12470000      -3.60300000
O        1.88340000       0.29400000      -3.61630000
C       -0.20650000       0.45540000      -4.80780000
C        0.52480000       0.23050000      -6.13210000
H        1.07610000       1.87390000      -0.11070000
H       -0.43940000       1.91140000      -1.01520000
H       -0.46550000       1.96720000       0.75340000
H        0.44910000      -0.36590000       0.85840000
H       -1.07440000      -0.33390000      -0.00580000
H        1.67720000      -0.32760000      -1.35290000
H        1.19820000      -2.69510000      -1.92400000
H        1.22740000      -2.49560000      -0.16200000
H       -0.32020000      -2.63910000      -1.00860000
H       -0.98780000      -0.50720000      -2.59070000
H       -1.14090000      -0.11730000      -4.77050000
H       -0.48910000       1.51240000      -4.71450000
H        1.48250000       0.75440000      -6.12020000
H        0.73020000      -0.83220000      -6.29400000
H       -0.07120000       0.59420000      -6.97380000
