14
Properties=species:S:1:pos:R:3 gdb_21528=T pbc="F F F"
N       -0.11280000       1.39480000      -0.13160000
C       -0.05470000       0.00080000      -0.06810000
C       -1.08960000      -0.88670000       0.03150000
C       -2.56810000      -0.68330000       0.01760000
O       -2.94780000       0.31540000      -0.92950000
O       -0.60200000      -2.14650000       0.14590000
N        0.77840000      -2.10580000       0.12550000
C        1.09400000      -0.83800000       0.00160000
H        0.63380000       1.80450000      -0.67660000
H       -1.01360000       1.71200000      -0.46980000
H       -3.06850000      -1.64370000      -0.16660000
H       -2.92660000      -0.30710000       0.98260000
H       -2.69460000      -0.00630000      -1.80200000
H        2.13700000      -0.55450000      -0.03580000
