17
Properties=species:S:1:pos:R:3 gdb_56751=T pbc="F F F"
O       -0.07990000       1.41420000       0.05040000
C        0.07160000      -0.00230000       0.04790000
C        0.71160000      -0.49220000      -1.17320000
C        1.27400000      -0.85060000      -2.17300000
C        0.82510000      -0.44040000       1.29030000
C        2.32700000      -0.29320000       1.65390000
C        1.62420000      -1.19900000       2.69200000
C        0.44600000      -0.20060000       2.77290000
O        0.92770000      -1.89110000       1.57820000
H        0.75530000       1.79300000      -0.24630000
H       -0.94480000      -0.40860000       0.11810000
H        1.75480000      -1.18270000      -3.06010000
H        3.01430000      -0.80490000       0.98030000
H        2.68540000       0.68520000       1.98410000
H        2.05990000      -1.82230000       3.47180000
H        0.62990000       0.78880000       3.19620000
H       -0.50700000      -0.63290000       3.07990000
