19
Properties=species:S:1:pos:R:3 gdb_91175=T pbc="F F F"
O        0.22800000       1.36890000      -0.30210000
C        0.04130000      -0.01030000      -0.02490000
C        0.64860000      -0.48130000       1.33180000
C       -0.55560000      -0.54770000       2.30750000
C       -0.97960000       0.87020000       2.66700000
C       -1.98280000       1.28640000       1.88890000
C       -2.43770000       0.19560000       0.97260000
C       -1.42080000      -0.48130000       0.04000000
C       -1.70780000      -1.05570000       1.40070000
H       -0.22290000       1.85800000       0.39480000
H        0.54170000      -0.51760000      -0.85520000
H        1.07540000      -1.48430000       1.21490000
H        1.45060000       0.18850000       1.65620000
H       -0.35590000      -1.17640000       3.17920000
H       -0.43430000       1.47770000       3.38090000
H       -2.42360000       2.27730000       1.89370000
H       -3.47320000       0.16380000       0.65100000
H       -1.84440000      -0.93930000      -0.84740000
H       -2.19450000      -2.00900000       1.56610000
