19
Properties=species:S:1:pos:R:3 gdb_99788=T pbc="F F F"
C        0.06400000       1.45970000      -0.07360000
C        0.06270000       0.00350000      -0.03740000
C        0.04720000      -1.19980000       0.02240000
C        0.04750000      -2.67190000       0.02790000
C       -1.40430000      -3.21340000       0.06270000
C        0.73660000      -3.15570000      -1.28890000
O        2.03910000      -2.65850000      -1.45020000
C        0.79180000      -3.17300000       1.19140000
C        1.37560000      -3.62010000       2.14130000
H        0.95970000       1.86720000       0.40750000
H        0.03860000       1.83370000      -1.10280000
H       -0.80840000       1.86670000       0.44890000
H       -1.96460000      -2.84090000      -0.79920000
H       -1.39540000      -4.30670000       0.03970000
H       -1.90950000      -2.88980000       0.97460000
H        0.81490000      -4.24640000      -1.26200000
H        0.07920000      -2.87280000      -2.12630000
H        1.98520000      -1.69720000      -1.37890000
H        1.90610000      -4.00180000       2.97820000
