18
Properties=species:S:1:pos:R:3 gdb_24595=T pbc="F F F"
C       -0.06210000       1.59510000       0.05970000
C        1.48570000       1.57200000      -0.04790000
N        1.46140000       0.16200000       0.38490000
C        0.00190000       0.05030000       0.17550000
C        2.37830000      -0.74420000      -0.10110000
N        3.51180000      -0.44580000      -0.69710000
C        4.11610000      -1.66460000      -0.94830000
C        3.34000000      -2.69690000      -0.51320000
N        2.21140000      -2.09450000       0.03320000
H       -0.42760000       2.07880000       0.96680000
H       -0.60170000       1.99020000      -0.80080000
H        1.86610000       1.68980000      -1.06900000
H        2.04790000       2.23370000       0.61640000
H       -0.54290000      -0.41000000       1.00700000
H       -0.26190000      -0.47130000      -0.75540000
H        5.07600000      -1.71800000      -1.43900000
H        3.45400000      -3.76720000      -0.54070000
H        1.45750000      -2.55850000       0.50920000
