16
Properties=species:S:1:pos:R:3 gdb_5070=T pbc="F F F"
C       -0.15200000       1.57750000       0.09880000
C       -0.02520000       0.08970000       0.03690000
C        0.01530000      -0.68940000      -1.08020000
N       -0.01690000      -0.33880000      -2.43380000
O        0.08890000      -2.01030000      -0.75050000
C        0.10170000      -2.07730000       0.62200000
C        0.04130000      -0.82430000       1.15110000
N       -0.05840000      -0.43850000       2.49720000
H        0.77020000       2.06410000       0.44450000
H       -0.38250000       1.97550000      -0.89270000
H       -0.95050000       1.87870000       0.78680000
H        0.91150000      -0.23040000      -2.83180000
H       -0.50770000      -1.03920000      -2.97940000
H        0.11920000      -3.06540000       1.04970000
H        0.20620000      -1.17630000       3.13740000
H        0.48880000       0.38820000       2.70360000
