15
Properties=species:S:1:pos:R:3 gdb_56408=T pbc="F F F"
O        0.74650000       1.63720000      -0.25540000
C        0.18710000       0.35640000       0.01490000
C        0.46640000      -0.60840000      -1.05980000
C        0.71240000      -1.37450000      -1.95140000
C        0.61220000      -0.17610000       1.31750000
C        0.98780000      -0.59200000       2.38350000
C        1.41890000      -1.06330000       3.67130000
C        1.60460000      -2.50330000       3.94410000
O        2.72670000      -1.65290000       3.75720000
H        1.70460000       1.53030000      -0.28800000
H       -0.89550000       0.53590000       0.04900000
H        0.92470000      -2.05490000      -2.73900000
H        1.17290000      -0.41690000       4.51280000
H        1.45100000      -2.87130000       4.95770000
H        1.41660000      -3.21760000       3.14510000
