22
Properties=species:S:1:pos:R:3 gdb_110127=T pbc="F F F"
C        2.04060000      -4.43660000      -0.62420000
C        1.00350000      -3.34300000      -0.34280000
C        1.07650000      -2.22530000      -1.36270000
C        0.22050000      -2.18970000      -2.62760000
C       -0.75660000      -3.26770000      -2.91050000
O       -1.49310000      -3.81230000      -2.11540000
N        0.07820000      -1.20700000      -1.53650000
C       -1.13430000      -1.15810000      -0.71250000
C       -2.17120000      -0.25270000      -1.37080000
H        1.84690000      -4.92520000      -1.58480000
H        3.05650000      -4.02750000      -0.65740000
H        2.01650000      -5.20630000       0.15240000
H        0.00270000      -3.77790000      -0.32290000
H        1.18760000      -2.90830000       0.64860000
H        2.09090000      -1.85130000      -1.51710000
H        0.67000000      -1.77940000      -3.53030000
H       -0.77400000      -3.56480000      -3.98360000
H       -1.57220000      -2.14320000      -0.52380000
H       -0.82590000      -0.73490000       0.25090000
H       -1.75520000       0.73990000      -1.56540000
H       -2.50740000      -0.67410000      -2.32380000
H       -3.04850000      -0.14600000      -0.72570000
