18
Properties=species:S:1:pos:R:3 gdb_47574=T pbc="F F F"
O       -0.17820000      -0.19990000      -0.11930000
C       -0.04580000       0.99690000      -0.06800000
N       -1.09350000       1.86690000       0.06180000
C       -1.10610000       3.30740000       0.02350000
C        0.00980000       4.16970000       0.55030000
C       -0.22600000       4.05130000      -0.94880000
C        0.66120000       3.21910000      -1.86060000
C        1.68130000       2.32020000      -1.15740000
O        1.18900000       1.59760000      -0.02210000
H       -1.98910000       1.40800000       0.01600000
H       -2.11680000       3.67010000       0.17080000
H       -0.27620000       5.10020000       1.02840000
H        0.87000000       3.68390000       0.98770000
H       -0.67160000       4.91470000      -1.43400000
H        0.01720000       2.60500000      -2.50440000
H        1.22830000       3.87170000      -2.53440000
H        2.10350000       1.60780000      -1.87750000
H        2.50250000       2.92120000      -0.75740000
