15
Properties=species:S:1:pos:R:3 gdb_127564=T pbc="F F F"
C       -0.03020000       1.48060000       0.03820000
N       -0.00640000       0.02150000       0.05150000
N       -0.03960000      -0.58610000      -1.15630000
C       -0.02010000      -1.87940000      -1.19100000
C        0.03590000      -2.78530000      -0.02440000
O        0.05120000      -4.00510000      -0.14420000
C        0.06850000      -2.05400000       1.22190000
C        0.04630000      -0.69080000       1.21180000
O        0.07250000       0.10160000       2.30520000
H        0.86890000       1.88840000       0.50740000
H       -0.07220000       1.77720000      -1.00790000
H       -0.90610000       1.86010000       0.57070000
H       -0.04810000      -2.32720000      -2.18000000
H        0.11050000      -2.59640000       2.15980000
H        0.10960000      -0.45730000       3.08970000
