21
Properties=species:S:1:pos:R:3 gdb_110984=T pbc="F F F"
C       -0.76870000       1.07380000      -0.09300000
O       -0.95300000      -0.22910000      -0.60120000
C        0.04800000      -0.62860000      -1.47770000
C        1.34840000      -1.28400000      -0.92210000
O        0.53260000      -2.41940000      -0.45170000
C        0.03660000      -2.13800000      -1.82960000
C       -1.08770000      -2.97010000      -2.35960000
C        1.53320000      -2.03410000      -2.27130000
C        2.00270000      -1.38560000      -3.56570000
H        0.13940000       1.14950000       0.52280000
H       -0.70210000       1.82060000      -0.90020000
H       -1.63620000       1.30390000       0.52960000
H        0.16310000       0.08930000      -2.30070000
H        2.10320000      -0.89170000      -0.23970000
H       -1.98650000      -2.81450000      -1.75610000
H       -1.31200000      -2.69240000      -3.39460000
H       -0.82480000      -4.03170000      -2.33330000
H        2.03420000      -2.98920000      -2.09410000
H        1.52720000      -0.42450000      -3.77440000
H        3.08500000      -1.21960000      -3.53530000
H        1.79990000      -2.04660000      -4.41540000
