14
Properties=species:S:1:pos:R:3 gdb_99438=T pbc="F F F"
C       -0.18480000       1.46990000       0.09890000
N        0.20440000       0.06820000      -0.05940000
C        0.76300000      -0.53060000       1.14610000
C       -0.17850000      -0.55780000       2.30170000
N       -0.95450000      -0.52670000       3.15720000
C        1.25480000      -1.88290000       0.87290000
C        1.66150000      -2.99360000       0.63970000
C        2.12250000      -4.25140000       0.37050000
N        2.51450000      -5.31950000       0.13990000
H        0.70630000       2.06900000       0.31460000
H       -0.60290000       1.82040000      -0.84720000
H       -0.92170000       1.64540000       0.89700000
H       -0.58090000      -0.48920000      -0.37910000
H        1.61920000       0.08810000       1.45290000
