17
Properties=species:S:1:pos:R:3 gdb_28889=T pbc="F F F"
C        0.03890000       1.50300000      -0.04710000
C        0.03110000      -0.00560000      -0.00360000
C        0.11090000      -0.73920000      -1.18720000
O        0.19950000      -0.16900000      -2.43700000
C        0.10590000      -2.14040000      -1.17910000
O        0.18490000      -2.83290000      -2.34760000
C        0.01980000      -2.81940000       0.02990000
C       -0.06050000      -2.09940000       1.21970000
C       -0.05490000      -0.70890000       1.20270000
H        0.95880000       1.89960000      -0.49800000
H       -0.80760000       1.90520000      -0.62020000
H       -0.02940000       1.91980000       0.96010000
H        0.19730000       0.78900000      -2.35950000
H        0.23620000      -2.18670000      -3.06320000
H        0.01710000      -3.90320000       0.01760000
H       -0.12780000      -2.62950000       2.16330000
H       -0.11760000      -0.15210000       2.13200000
