15
Properties=species:S:1:pos:R:3 gdb_12753=T pbc="F F F"
N        0.23230000       1.44700000      -0.14010000
C        0.01760000       0.05270000      -0.04470000
C       -0.27560000      -0.84950000      -1.21300000
C       -1.17020000      -0.92350000      -0.01030000
N       -0.50930000      -1.79210000       0.98840000
C        0.60960000      -0.79240000       1.10740000
C        1.95490000      -1.34270000       0.93560000
N        3.02120000      -1.76010000       0.77900000
H        0.19250000       1.79030000      -1.09000000
H       -0.38930000       1.99570000       0.44180000
H       -0.69920000      -0.32770000      -2.06640000
H        0.37220000      -1.68700000      -1.45890000
H       -2.24330000      -0.77870000      -0.03440000
H       -1.03180000      -1.82030000       1.85830000
H        0.57200000      -0.23170000       2.04710000
