15
Properties=species:S:1:pos:R:3 gdb_45498=T pbc="F F F"
O       -0.03340000       0.02130000      -0.43140000
C        0.00320000       1.16580000      -0.08830000
O       -1.12430000       1.89130000       0.18540000
C       -0.78630000       3.21720000       0.64510000
O       -0.82640000       3.25180000       2.03680000
C        0.38800000       2.65210000       2.51630000
C        1.39630000       2.81290000       1.38160000
C        0.68110000       3.45450000       0.23780000
C        1.20020000       2.05800000       0.06240000
H       -1.53480000       3.90160000       0.25070000
H        0.70010000       3.19630000       3.41190000
H        0.21030000       1.60470000       2.78770000
H        2.41750000       3.07840000       1.62550000
H        0.99980000       4.32670000      -0.31540000
H        2.07640000       1.80790000      -0.52030000
