13
Properties=species:S:1:pos:R:3 gdb_20709=T pbc="F F F"
C       -0.03820000       1.48180000      -0.06760000
C        0.00460000      -0.00750000       0.02250000
N       -0.04000000      -0.78820000      -1.04320000
N        0.02150000      -2.03730000      -0.53750000
C       -0.00260000      -3.15200000      -1.40340000
O        0.04810000      -4.28770000      -1.03790000
N        0.10370000      -2.11180000       0.79920000
C        0.09460000      -0.84670000       1.17150000
H        0.85880000       1.92840000       0.37390000
H       -0.10430000       1.79270000      -1.11160000
H       -0.90210000       1.88380000       0.47180000
H       -0.07350000      -2.80050000      -2.44520000
H        0.15060000      -0.57580000       2.21500000
