19
Properties=species:S:1:pos:R:3 gdb_81629=T pbc="F F F"
O        0.08460000       1.43310000      -0.26410000
C       -0.06520000       0.04940000      -0.13720000
C       -0.08200000      -0.65260000       1.26120000
C       -1.52800000      -0.09820000       1.43950000
C       -1.47480000      -0.61910000      -0.02970000
C       -0.75710000      -1.87800000       0.55570000
C        0.01170000      -2.86480000      -0.33120000
C        0.89900000      -3.76020000       0.50660000
O        0.79020000      -4.95610000       0.59030000
H       -0.49770000       1.88130000       0.35710000
H        0.61240000      -0.37070000      -0.87990000
H        0.71140000      -0.67060000       2.00990000
H       -2.17830000      -0.64540000       2.12640000
H       -1.64760000       0.97720000       1.59790000
H       -2.27960000      -0.60730000      -0.76640000
H       -1.40190000      -2.44370000       1.23590000
H       -0.68860000      -3.49750000      -0.88500000
H        0.65280000      -2.35050000      -1.05610000
H        1.68850000      -3.21740000       1.07740000
