24
Properties=species:S:1:pos:R:3 gdb_8948=T pbc="F F F"
C       -0.01880000       1.61130000       0.02140000
C       -0.05710000       0.08110000      -0.06570000
C        0.73480000      -0.50960000      -1.24810000
C        2.21030000      -0.08260000      -1.22500000
C        0.63040000      -2.04800000      -1.30510000
C       -0.80570000      -2.58120000      -1.30600000
O        1.30450000      -2.45320000      -2.49650000
C        1.79960000      -3.76940000      -2.48170000
H        0.98750000       1.98750000       0.22540000
H       -0.36180000       2.06850000      -0.91380000
H       -0.67190000       1.96900000       0.82370000
H        0.32620000      -0.34520000       0.87270000
H       -1.10420000      -0.23080000      -0.13700000
H        0.28460000      -0.13790000      -2.18060000
H        2.76070000      -0.58030000      -2.02490000
H        2.31990000       0.99700000      -1.35700000
H        2.67830000      -0.34970000      -0.26890000
H        1.16810000      -2.46470000      -0.43450000
H       -1.39300000      -2.09990000      -2.09490000
H       -0.81700000      -3.65980000      -1.48740000
H       -1.30140000      -2.40940000      -0.34720000
H        2.49510000      -3.93430000      -1.64340000
H        1.00330000      -4.52620000      -2.41740000
H        2.33980000      -3.92110000      -3.42010000
