14
Properties=species:S:1:pos:R:3 gdb_42558=T pbc="F F F"
O        0.07680000       0.07260000       0.26890000
C       -0.02480000       1.24470000       0.10720000
C       -1.10330000       2.27040000       0.06890000
C       -0.39720000       3.56270000       0.57220000
C       -0.16850000       3.09300000      -0.80870000
N        1.01210000       2.24340000      -0.31180000
C        1.02700000       3.12760000       0.95200000
C        2.01440000       4.18590000       0.89160000
C        2.81540000       5.08100000       0.86490000
H       -2.18050000       2.17610000       0.04510000
H       -0.97490000       4.40760000       0.92640000
H       -0.29150000       3.47850000      -1.80830000
H        1.15010000       2.53790000       1.86840000
H        3.53330000       5.86330000       0.83550000
