19
Properties=species:S:1:pos:R:3 gdb_126334=T pbc="F F F"
C        0.14120000       1.54020000       0.16520000
C       -0.08610000       0.03400000      -0.05030000
C        0.62770000      -0.50680000      -1.25210000
C        0.11260000      -0.97410000      -2.44280000
N        1.15780000      -1.34310000      -3.22140000
N        2.35790000      -1.15000000      -2.61790000
C        2.03010000      -0.64710000      -1.43650000
O        2.93750000      -0.30540000      -0.50120000
C        4.29930000      -0.52450000      -0.85220000
H        1.20770000       1.75300000       0.27990000
H       -0.22750000       2.11780000      -0.68850000
H       -0.37650000       1.89010000       1.06420000
H        0.24840000      -0.50470000       0.84510000
H       -1.15900000      -0.16780000      -0.14720000
H       -0.90830000      -1.07070000      -2.78010000
H        1.13800000      -1.73130000      -4.14710000
H        4.88830000      -0.20200000       0.00780000
H        4.48530000      -1.58330000      -1.06190000
H        4.57530000       0.05680000      -1.73850000
