18
Properties=species:S:1:pos:R:3 gdb_92417=T pbc="F F F"
C        0.45120000       1.65580000       0.08350000
C        0.13010000       0.18680000       0.26930000
N        0.68900000      -0.72910000      -0.77820000
C        1.25610000      -1.62700000       0.24170000
C        2.70970000      -1.26810000       0.59610000
O        2.27250000      -0.26120000       1.54950000
C        0.89040000      -0.60450000       1.37130000
C        0.18610000      -0.94000000       2.64840000
O       -1.01020000      -1.07500000       2.73630000
H        1.53270000       1.80910000       0.05880000
H        0.02610000       2.02000000      -0.85700000
H        0.03050000       2.25100000       0.90100000
H       -0.94280000       0.02720000       0.43320000
H       -0.02170000      -1.16410000      -1.35420000
H        0.95470000      -2.67490000       0.22290000
H        3.27710000      -2.06030000       1.10010000
H        3.29210000      -0.84120000      -0.22540000
H        0.86690000      -1.07710000       3.51670000
