21
Properties=species:S:1:pos:R:3 gdb_97912=T pbc="F F F"
C        0.20720000       1.59540000       0.12050000
C        0.00660000       0.08490000      -0.03240000
C        0.65910000      -0.44110000      -1.31110000
O        0.04360000       0.19450000      -2.42080000
C        0.55120000      -0.69970000       1.18460000
C       -0.11210000      -0.37410000       2.44140000
C       -0.66960000      -0.09480000       3.47140000
C       -1.35320000       0.21900000       4.71900000
O       -0.68880000       1.29410000       5.37470000
H        1.27320000       1.83770000       0.21540000
H       -0.18180000       2.12050000      -0.75420000
H       -0.30050000       1.96780000       1.01400000
H       -1.06840000      -0.12070000      -0.11170000
H        1.74230000      -0.23220000      -1.28270000
H        0.53740000      -1.53560000      -1.36700000
H        0.49990000      -0.08400000      -3.21980000
H        0.45330000      -1.77780000       0.99780000
H        1.62880000      -0.50730000       1.28630000
H       -2.40290000       0.47600000       4.50090000
H       -1.37380000      -0.68130000       5.35530000
H       -1.16930000       1.47170000       6.18980000
