17
Properties=species:S:1:pos:R:3 gdb_12912=T pbc="F F F"
C       -0.08940000       1.46150000      -0.02700000
C       -0.00580000      -0.03720000      -0.03420000
C       -1.20480000      -0.98810000      -0.11290000
C       -0.48860000      -1.81840000       0.97850000
N        0.66170000      -0.83900000       1.04470000
C        1.29050000      -0.75020000      -0.30760000
C        1.46210000      -1.84200000      -1.30090000
O        0.75140000      -2.80860000      -1.45950000
H        0.85330000       1.90640000       0.30340000
H       -0.31800000       1.84290000      -1.02870000
H       -0.88150000       1.79980000       0.64980000
H       -2.12780000      -0.51640000       0.23130000
H       -1.38300000      -1.47840000      -1.07100000
H       -0.99510000      -1.80350000       1.94550000
H       -0.20220000      -2.83640000       0.72190000
H        2.16080000      -0.09960000      -0.26310000
H        2.35230000      -1.68740000      -1.95270000
