16
Properties=species:S:1:pos:R:3 gdb_19668=T pbc="F F F"
C        0.04130000      -1.24950000      -0.04110000
C        0.04090000      -0.04750000       0.01130000
C        0.03910000       1.40440000       0.07400000
C       -0.14480000       2.13670000       1.41130000
C        1.23750000       2.27890000       2.06370000
C        2.25760000       1.63030000       1.13000000
C        1.39140000       2.19260000      -0.02780000
C        0.78980000       3.24360000       0.99120000
H        0.04130000      -2.31040000      -0.08480000
H       -0.66820000       1.81130000      -0.65660000
H       -1.05320000       2.21180000       1.99450000
H        1.32340000       2.46430000       3.12660000
H        3.22180000       2.14310000       1.18470000
H        2.40520000       0.54640000       1.16720000
H        1.81940000       2.40060000      -1.00570000
H        0.67360000       4.31680000       0.97060000
