12
Properties=species:S:1:pos:R:3 gdb_2671=T pbc="F F F"
C       -0.01130000       1.40180000       0.01050000
O       -0.01650000      -0.01060000      -0.03170000
C        0.64640000      -0.57560000       1.07430000
C        0.61280000      -2.02880000       0.97950000
C        0.60070000      -3.23440000       0.92750000
C        0.58580000      -4.59850000       0.86640000
N        0.57510000      -5.75890000       0.81790000
H        1.01280000       1.80520000      -0.00340000
H       -0.54250000       1.74730000      -0.87800000
H       -0.52370000       1.78370000       0.90680000
H        1.69850000      -0.24280000       1.12270000
H        0.17470000      -0.26640000       2.02390000
