19
Properties=species:S:1:pos:R:3 gdb_73896=T pbc="F F F"
C        0.24370000       1.53310000       0.30380000
C        0.06310000       0.06630000       0.08460000
C       -1.04530000      -0.64460000      -0.12950000
C       -2.47530000      -0.17560000      -0.19500000
C       -3.12480000      -0.49010000      -1.46830000
C       -3.64750000      -0.75700000      -2.51690000
C       -0.68890000      -2.09960000      -0.29400000
O        0.72530000      -2.16790000      -0.15580000
C        1.24710000      -0.86810000       0.08180000
H        0.90800000       1.96370000      -0.45590000
H       -0.70130000       2.08050000       0.26940000
H        0.71160000       1.73140000       1.27640000
H       -3.05120000      -0.64420000       0.61710000
H       -2.52760000       0.90420000      -0.01700000
H       -4.11300000      -0.98890000      -3.44260000
H       -1.17310000      -2.73280000       0.46880000
H       -0.99250000      -2.49180000      -1.27650000
H        1.97660000      -0.60460000      -0.70240000
H        1.79070000      -0.84750000       1.04150000
