18
Properties=species:S:1:pos:R:3 gdb_35113=T pbc="F F F"
N       -0.61760000      -0.78870000      -1.25400000
C       -0.33710000       0.14930000      -0.63990000
C        0.01760000       1.34590000       0.14120000
C       -0.52020000       1.23920000       1.55560000
C        0.12900000       1.69280000       2.62440000
C        1.48040000       2.34910000       2.59130000
C        2.24450000       2.11130000       1.30110000
C        2.47780000       0.70500000       0.80860000
C        1.52170000       1.60890000       0.07370000
H       -0.49500000       2.18750000      -0.34960000
H       -1.50200000       0.78770000       1.65670000
H       -0.34550000       1.60760000       3.59880000
H        1.34870000       3.43070000       2.74260000
H        2.07500000       2.00850000       3.44970000
H        3.04620000       2.82040000       1.11870000
H        3.42270000       0.46990000       0.33270000
H        2.05240000      -0.10790000       1.38800000
H        1.85120000       1.98790000      -0.88790000
