14
Properties=species:S:1:pos:R:3 gdb_123819=T pbc="F F F"
C       -0.33900000       1.15040000      -0.07140000
C        1.13560000       1.04820000       0.27020000
C        0.34990000      -0.17900000      -0.03710000
O        0.10630000      -1.03110000       1.07620000
C       -0.91400000      -1.85910000       0.95260000
N       -1.70800000      -2.00230000      -0.07380000
O       -2.56160000      -2.99020000       0.32790000
N       -2.22240000      -3.39190000       1.60760000
N       -1.23260000      -2.71630000       1.98870000
H       -1.01910000       1.37440000       0.74210000
H       -0.63650000       1.54210000      -1.03700000
H        1.87270000       1.37450000      -0.45390000
H        1.41360000       1.20020000       1.30660000
H        0.51420000      -0.73030000      -0.95670000
