23
Properties=species:S:1:pos:R:3 gdb_110842=T pbc="F F F"
C       -0.01450000       1.48520000       0.29320000
C       -0.00410000       0.04070000      -0.22090000
C       -1.36210000      -0.61940000      -0.11760000
C       -1.59650000      -2.11110000      -0.12820000
C       -0.44210000      -3.05920000       0.20040000
C       -0.07380000      -2.72750000       1.63780000
C        1.07670000      -3.39250000       2.32530000
C       -0.88950000      -1.78860000       2.13350000
C       -1.88860000      -1.31080000       1.13750000
H        0.96850000       1.95430000       0.18390000
H       -0.73880000       2.09760000      -0.25570000
H       -0.28900000       1.51960000       1.35270000
H        0.31820000       0.02650000      -1.27090000
H        0.73920000      -0.53590000       0.33770000
H       -2.13810000      -0.06790000      -0.64740000
H       -2.40470000      -2.48710000      -0.74530000
H       -0.74910000      -4.11000000       0.10440000
H        0.41600000      -2.93320000      -0.47490000
H        2.02560000      -3.18730000       1.81290000
H        1.17550000      -3.05740000       3.36150000
H        0.95880000      -4.48420000       2.32970000
H       -0.82560000      -1.38910000       3.14050000
H       -2.89970000      -1.08480000       1.46070000
