18
Properties=species:S:1:pos:R:3 gdb_51714=T pbc="F F F"
O        0.43590000      -0.24540000       0.16570000
C        0.31450000       0.93620000      -0.01960000
C        1.47060000       1.88720000      -0.30040000
N        1.04930000       2.95960000      -1.19020000
C        1.93220000       4.14640000      -1.18660000
C        2.99770000       3.90070000      -2.26840000
C        2.26350000       3.01190000      -3.27790000
O        2.61310000       2.73600000      -4.39350000
C        0.96190000       2.54670000      -2.59460000
H       -0.67420000       1.44660000       0.01290000
H        1.73910000       2.32900000       0.66950000
H        2.33650000       1.29330000      -0.63910000
H        1.33240000       5.02860000      -1.44260000
H        2.34470000       4.30760000      -0.18900000
H        3.39030000       4.79870000      -2.75000000
H        3.85210000       3.33640000      -1.87520000
H        0.81980000       1.46910000      -2.70980000
H        0.12020000       3.04260000      -3.09840000
