19
Properties=species:S:1:pos:R:3 gdb_111204=T pbc="F F F"
O       -0.11020000       1.47940000      -0.17350000
C        0.03690000       0.08800000       0.08500000
C       -1.34860000      -0.51960000      -0.03320000
C       -1.99960000      -0.80980000      -1.42430000
C       -1.05650000      -2.04110000      -1.56160000
C       -1.57010000      -2.06360000      -0.09070000
C       -2.99600000      -1.78880000      -0.69820000
C       -4.13000000      -1.28320000       0.14500000
O       -5.24360000      -1.74680000       0.07520000
H        0.74800000       1.89880000      -0.06250000
H        0.75780000      -0.36550000      -0.60790000
H        0.41300000      -0.08890000       1.10630000
H       -1.99020000       0.01940000       0.66570000
H       -2.26330000      -0.08450000      -2.19390000
H       -1.41100000      -2.84880000      -2.20610000
H        0.00380000      -1.85180000      -1.72540000
H       -1.33880000      -2.79750000       0.68320000
H       -3.38210000      -2.59490000      -1.32750000
H       -3.91720000      -0.45390000       0.85130000
