19
Properties=species:S:1:pos:R:3 gdb_106687=T pbc="F F F"
O        0.16840000       1.36050000      -0.19360000
C        0.06580000      -0.01360000       0.16850000
C       -1.34140000      -0.52360000       0.16010000
C       -2.04220000      -0.94970000      -1.12890000
C       -1.94600000      -1.93890000      -0.02660000
O       -1.38190000      -3.17930000      -0.20660000
C       -2.96510000      -1.67080000       1.08170000
O       -2.71920000      -2.49920000       2.21110000
C       -2.42790000      -0.21100000       1.20350000
H       -0.24740000       1.45750000      -1.05700000
H        0.68720000      -0.64910000      -0.48270000
H        0.49040000      -0.07260000       1.17770000
H       -2.99450000      -0.51060000      -1.42460000
H       -1.37070000      -1.16100000      -1.95730000
H       -1.44650000      -3.61600000       0.65480000
H       -4.02160000      -1.81130000       0.83080000
H       -1.95340000      -2.14970000       2.68050000
H       -2.03110000      -0.01290000       2.20540000
H       -3.13090000       0.58950000       0.95130000
