18
Properties=species:S:1:pos:R:3 gdb_88796=T pbc="F F F"
C        0.08140000       1.55680000      -0.27340000
C       -0.06170000       0.09360000       0.06670000
N        1.12750000      -0.77410000      -0.03610000
C        0.49370000      -0.57810000       1.27500000
C        1.32410000       0.06090000       2.36360000
C        2.34910000      -0.85180000       3.07390000
O        3.43590000       0.04310000       2.68500000
C        2.58580000       0.87490000       2.00870000
O        2.86850000       1.87550000       1.43320000
H        1.02020000       1.97010000       0.09640000
H        0.04910000       1.69200000      -1.35990000
H       -0.74950000       2.12750000       0.15680000
H       -0.99680000      -0.34760000      -0.28020000
H        0.88840000      -1.68030000      -0.42770000
H       -0.11190000      -1.39760000       1.66500000
H        0.68810000       0.61300000       3.06310000
H        2.27790000      -0.92510000       4.16070000
H        2.48520000      -1.83800000       2.62490000
