19
Properties=species:S:1:pos:R:3 gdb_52306=T pbc="F F F"
O       -0.28150000       0.26360000       0.59730000
C        0.14670000       0.98970000      -0.25950000
C        1.27940000       1.97880000      -0.04010000
O        1.40080000       2.76500000      -1.19520000
C        2.54710000       3.61490000      -1.22630000
C        2.70620000       4.17340000      -2.65740000
C        3.07550000       5.66900000      -2.49800000
C        2.71300000       5.96190000      -1.06260000
C        2.43000000       4.85940000      -0.37280000
H       -0.24830000       0.99250000      -1.29940000
H        1.06090000       2.56780000       0.86460000
H        2.20160000       1.40600000       0.16540000
H        3.42020000       3.01370000      -0.91800000
H        3.43370000       3.61200000      -3.24710000
H        1.73370000       4.07090000      -3.14660000
H        4.14630000       5.84300000      -2.66890000
H        2.54610000       6.31490000      -3.20760000
H        2.72140000       6.96740000      -0.65510000
H        2.17910000       4.82390000       0.68120000
