14
Properties=species:S:1:pos:R:3 gdb_46160=T pbc="F F F"
O        0.00720000       0.03370000       0.41830000
C       -0.01390000       1.17100000       0.02300000
C       -1.32310000       1.93410000      -0.17100000
O       -1.21510000       3.03810000      -1.06300000
C       -0.06150000       3.79130000      -0.81680000
O        1.10560000       3.07030000      -1.09420000
C        1.26800000       1.97000000      -0.20590000
C       -0.08970000       4.97030000      -1.69960000
N       -0.11170000       5.92180000      -2.35070000
H       -2.08280000       1.26110000      -0.57150000
H       -1.65760000       2.27170000       0.82530000
H       -0.05210000       4.13670000       0.23610000
H        1.61980000       2.31700000       0.78120000
H        2.03500000       1.31810000      -0.62700000
