16
Properties=species:S:1:pos:R:3 gdb_47145=T pbc="F F F"
O       -0.08430000      -0.05330000       0.33940000
C       -0.02320000       1.13850000       0.11510000
N       -1.08790000       1.96920000      -0.14640000
C       -0.71490000       3.35680000      -0.28080000
C        0.78020000       3.29200000      -0.13010000
C        1.18690000       2.03540000       0.08250000
C        2.57580000       1.57090000       0.25760000
C        2.91870000       0.25840000       0.83770000
O        3.00680000       0.48050000      -0.56770000
H       -2.03490000       1.63280000      -0.11120000
H       -1.00300000       3.77630000      -1.25570000
H       -1.17470000       3.99040000       0.49220000
H        1.40670000       4.17200000      -0.20350000
H        3.30900000       2.37400000       0.34350000
H        3.87250000       0.15550000       1.35450000
H        2.11480000      -0.40300000       1.14530000
