16
Properties=species:S:1:pos:R:3 gdb_113752=T pbc="F F F"
O       -0.08800000       1.39800000      -0.65090000
C        0.05210000       0.22080000       0.12310000
C       -1.27840000      -0.47050000       0.29230000
O       -1.76060000      -1.22530000      -0.83820000
C       -1.48740000      -1.92270000       0.37160000
C       -0.33880000      -2.92640000       0.35000000
O        0.27550000      -3.05880000       1.61770000
C       -0.81420000      -4.23040000      -0.15680000
N       -1.20740000      -5.25740000      -0.51090000
H       -0.41820000       1.13480000      -1.51730000
H        0.79600000      -0.46010000      -0.31170000
H        0.42390000       0.53800000       1.10300000
H       -2.04440000       0.16070000       0.74500000
H       -2.37410000      -2.28090000       0.89880000
H        0.43690000      -2.56610000      -0.32970000
H       -0.34080000      -3.49650000       2.21650000
