18
Properties=species:S:1:pos:R:3 gdb_10330=T pbc="F F F"
C        0.03420000       1.54210000      -0.17350000
C       -0.01630000       0.02850000       0.03290000
O        0.49560000      -0.66610000      -1.10060000
C        0.69900000      -0.44170000       1.31870000
C       -0.01470000       0.01250000       2.60500000
O        0.50720000      -0.60860000       3.76590000
C        0.79370000      -1.96020000       1.31210000
O        1.82540000      -2.57680000       1.34760000
H        1.07170000       1.89640000      -0.20260000
H       -0.44080000       1.79730000      -1.12440000
H       -0.48340000       2.08150000       0.62560000
H       -1.06540000      -0.28980000       0.08610000
H        1.43990000      -0.48260000      -1.16630000
H        1.73040000      -0.06000000       1.31900000
H        0.01590000       1.10870000       2.68450000
H       -1.07040000      -0.28080000       2.56660000
H        1.45340000      -0.43330000       3.80530000
H       -0.19210000      -2.47810000       1.27890000
