14
Properties=species:S:1:pos:R:3 gdb_132865=T pbc="F F F"
C       -0.03160000       1.49050000      -0.01810000
C       -0.00360000      -0.00450000      -0.03580000
N       -0.02470000      -0.65360000      -1.16590000
C        0.00140000      -2.00090000      -1.15780000
F       -0.02270000      -2.59150000      -2.35000000
C        0.04900000      -2.74330000      -0.02610000
N        0.07130000      -2.06490000       1.16470000
C        0.04830000      -0.67900000       1.27960000
O        0.06940000      -0.11510000       2.36120000
H        0.85190000       1.88000000       0.49950000
H       -0.07080000       1.87840000      -1.03590000
H       -0.89510000       1.84670000       0.55430000
H        0.07020000      -3.82380000      -0.00600000
H        0.10680000      -2.57100000       2.03900000
