20
Properties=species:S:1:pos:R:3 gdb_105895=T pbc="F F F"
C       -0.15240000       1.56430000      -0.02530000
C       -0.01990000       0.05780000       0.06190000
N        1.18160000      -0.56430000      -0.65820000
C        2.07900000      -0.27740000       0.58090000
C        2.57640000      -1.72510000       0.60550000
C        1.08190000      -1.79420000       0.28400000
C        0.69730000      -0.61750000       1.23440000
C        0.33580000      -0.66350000       2.69280000
O        0.35000000       0.67250000       3.18190000
H        0.76540000       2.07340000       0.28160000
H       -0.38630000       1.86730000      -1.05130000
H       -0.95680000       1.91300000       0.62950000
H       -0.95280000      -0.43200000      -0.25080000
H        2.64800000       0.64840000       0.65960000
H        3.25370000      -2.01240000      -0.20300000
H        2.90250000      -2.12670000       1.56810000
H        0.45840000      -2.64650000       0.00420000
H       -0.66000000      -1.12220000       2.80900000
H        1.05380000      -1.29950000       3.23690000
H        0.07080000       0.65960000       4.10200000
