12
Properties=species:S:1:pos:R:3 gdb_5438=T pbc="F F F"
C        0.11770000       1.50240000       0.07550000
C       -0.03010000       0.02970000       0.04300000
C       -1.08940000      -0.82180000      -0.09760000
N       -0.64080000      -2.14350000      -0.05450000
C        0.63070000      -2.02740000       0.10540000
O        1.08110000      -0.74580000       0.17410000
C       -2.45230000      -0.46580000      -0.26420000
N       -3.55430000      -0.13810000      -0.39850000
H        0.77230000       1.85060000      -0.73040000
H       -0.86120000       1.97090000      -0.04260000
H        0.55260000       1.83400000       1.02420000
H        1.37160000      -2.80630000       0.19040000
