19
Properties=species:S:1:pos:R:3 gdb_115609=T pbc="F F F"
O       -0.03250000       1.35770000      -0.49650000
C        0.10840000      -0.01770000      -0.19180000
C       -1.21960000      -0.55970000       0.31790000
O       -2.26090000      -0.33710000      -0.67290000
C       -2.34620000      -1.75240000      -0.96700000
C       -1.44350000      -2.08590000       0.24990000
O       -0.28320000      -2.83620000       0.00240000
C       -2.18730000      -2.65120000       1.45060000
O       -2.41520000      -4.02770000       1.16200000
H       -0.80820000       1.41670000      -1.06870000
H        0.44060000      -0.59830000      -1.06360000
H        0.87880000      -0.10670000       0.58050000
H       -1.48310000      -0.07250000       1.26590000
H       -3.37920000      -2.11460000      -0.94700000
H       -1.87830000      -2.00850000      -1.92440000
H       -0.52030000      -3.75650000       0.17830000
H       -1.56120000      -2.53180000       2.34720000
H       -3.12890000      -2.10630000       1.60670000
H       -2.70990000      -4.47060000       1.96250000
