20
Properties=species:S:1:pos:R:3 gdb_14999=T pbc="F F F"
C       -0.05250000       1.56530000       0.00310000
C        0.00890000       0.03580000      -0.01230000
C        0.71580000      -0.52670000      -1.23980000
C        0.84510000      -2.05520000      -1.23400000
C        1.38440000      -2.52410000      -2.58840000
O        0.59970000      -1.99350000      -3.64820000
C        0.55040000      -0.59380000      -3.58040000
O       -0.02790000      -0.12350000      -2.39350000
H        0.95270000       2.00130000       0.02220000
H       -0.56280000       1.93800000      -0.88830000
H       -0.58990000       1.92820000       0.88430000
H        0.53070000      -0.33300000       0.87940000
H       -1.00490000      -0.38140000       0.01900000
H        1.72890000      -0.08720000      -1.30920000
H        1.50990000      -2.38060000      -0.42560000
H       -0.14290000      -2.49710000      -1.06320000
H        2.43480000      -2.20570000      -2.70680000
H        1.34810000      -3.61210000      -2.68690000
H        1.57250000      -0.17910000      -3.68770000
H       -0.08260000      -0.25490000      -4.40310000
