18
Properties=species:S:1:pos:R:3 gdb_10534=T pbc="F F F"
O       -1.81560000       1.77030000       0.29980000
C       -1.74790000       0.50390000      -0.33770000
C       -1.46940000      -0.62140000       0.66230000
C       -1.31160000      -2.01110000       0.07280000
C       -0.75180000      -3.05180000       1.02650000
O        0.57660000      -2.73510000       1.40650000
C       -2.05860000      -2.47130000      -1.10610000
O       -0.68280000      -2.09070000      -1.22670000
H       -0.94370000       1.96440000       0.65860000
H       -2.72620000       0.36970000      -0.81060000
H       -0.99360000       0.48660000      -1.13560000
H       -0.54160000      -0.39520000       1.20440000
H       -2.26850000      -0.64270000       1.41360000
H       -1.33860000      -3.08060000       1.95090000
H       -0.80760000      -4.04400000       0.55550000
H        1.09150000      -2.70300000       0.59170000
H       -2.26040000      -3.53420000      -1.23510000
H       -2.76800000      -1.81020000      -1.59930000
