25
Properties=species:S:1:pos:R:3 gdb_60409=T pbc="F F F"
C       -0.02400000       1.51260000      -0.14990000
C        0.03530000      -0.01040000       0.03040000
C        0.86010000      -0.37350000       1.27360000
C       -1.38500000      -0.60350000       0.07190000
C       -1.45480000      -2.13610000       0.06000000
C       -2.88280000      -2.66320000      -0.01920000
C       -3.62230000      -2.54550000      -1.37350000
O       -3.80180000      -3.97360000      -1.45570000
C       -3.07390000      -4.18280000      -0.22880000
H        0.98010000       1.94340000      -0.22170000
H       -0.57310000       1.78720000      -1.05690000
H       -0.52790000       1.98820000       0.70030000
H        0.54530000      -0.43270000      -0.84810000
H        0.37980000       0.00560000       2.18420000
H        0.98280000      -1.45450000       1.38650000
H        1.86110000       0.06730000       1.22090000
H       -1.90610000      -0.22330000       0.96280000
H       -1.94590000      -0.21930000      -0.79130000
H       -0.88210000      -2.52380000      -0.79470000
H       -0.97750000      -2.54440000       0.95960000
H       -3.47300000      -2.27520000       0.81660000
H       -4.58060000      -2.01200000      -1.36600000
H       -3.01100000      -2.16080000      -2.20240000
H       -2.14470000      -4.74610000      -0.39320000
H       -3.67710000      -4.70810000       0.52200000
