15
Properties=species:S:1:pos:R:3 gdb_26860=T pbc="F F F"
C        0.11010000       1.50000000       0.03400000
C       -0.05040000       0.01500000       0.01580000
C       -1.22490000      -0.67450000       0.00670000
N       -2.50400000      -0.09240000       0.08890000
C       -1.09720000      -2.09850000      -0.00320000
N        0.01780000      -2.76130000      -0.00670000
C        1.20880000      -2.06180000       0.02280000
O        2.30700000      -2.53520000       0.03590000
O        1.12180000      -0.64900000       0.03700000
H        1.09650000       1.76700000      -0.35010000
H       -0.65120000       1.99060000      -0.58130000
H        0.02300000       1.89810000       1.05220000
H       -2.51590000       0.89820000      -0.11290000
H       -3.18760000      -0.56140000      -0.49260000
H       -2.01520000      -2.69150000      -0.01230000
