19
Properties=species:S:1:pos:R:3 gdb_70351=T pbc="F F F"
O       -0.04100000       1.35350000       0.14830000
C        0.02090000      -0.03450000      -0.01940000
C       -0.48390000      -0.67980000      -1.28060000
C       -1.27820000      -0.79100000       0.01560000
C       -1.29240000      -2.08520000       0.83640000
C        0.07680000      -2.30570000       1.48610000
C        0.61130000      -1.03790000       2.19160000
C        1.12340000      -0.72930000       0.77040000
O        1.10650000      -2.14780000       0.45870000
H        0.66090000       1.74720000      -0.38250000
H       -0.88870000      -0.01570000      -2.03680000
H        0.02900000      -1.56170000      -1.64520000
H       -2.17520000      -0.18280000       0.05570000
H       -2.05590000      -2.02290000       1.62100000
H       -1.54560000      -2.94940000       0.21090000
H        0.15740000      -3.26720000       1.99980000
H       -0.10200000      -0.34100000       2.63550000
H        1.41700000      -1.26950000       2.88970000
H        2.11050000      -0.27780000       0.62540000
