16
Properties=species:S:1:pos:R:3 gdb_2309=T pbc="F F F"
C        1.10610000       1.43760000       0.04790000
C        0.23880000       0.19920000      -0.00180000
C        0.78370000      -1.16090000       0.27710000
N       -0.17610000      -0.54770000       1.18930000
C        0.22550000      -0.13240000       2.54010000
C        1.65340000      -0.10880000       2.87410000
C        2.82150000      -0.12960000       3.16180000
H        1.95130000       1.32570000       0.72900000
H        1.49860000       1.65460000      -0.95150000
H        0.52400000       2.31080000       0.36500000
H       -0.57000000       0.26830000      -0.72960000
H        0.42630000      -2.03320000      -0.26490000
H        1.82260000      -1.21440000       0.59640000
H       -0.21030000       0.85600000       2.73040000
H       -0.26780000      -0.82020000       3.23880000
H        3.85150000      -0.13540000       3.42130000
