25
Properties=species:S:1:pos:R:3 gdb_96134=T pbc="F F F"
C       -0.01240000       1.56660000       0.00270000
C        0.00310000       0.03070000       0.02000000
C        0.53750000      -0.49620000      -1.32980000
C        0.72290000      -2.01660000      -1.43940000
C        1.91900000      -2.59720000      -0.66200000
C        2.02020000      -2.20350000       0.81900000
C        0.64840000      -2.01470000       1.52960000
C        0.75470000      -0.48440000       1.26410000
C        2.28650000      -0.69000000       1.07210000
H        1.00770000       1.96810000      -0.02840000
H       -0.54410000       1.95020000      -0.87480000
H       -0.50080000       1.97110000       0.89520000
H       -1.03800000      -0.31360000       0.11650000
H       -0.16210000      -0.16990000      -2.10940000
H        1.48840000       0.00210000      -1.56430000
H       -0.20230000      -2.51450000      -1.12190000
H        0.84970000      -2.28100000      -2.49630000
H        1.87180000      -3.69140000      -0.73570000
H        2.85170000      -2.30040000      -1.16160000
H        2.72080000      -2.88060000       1.31730000
H       -0.21900000      -2.54590000       1.12670000
H        0.71670000      -2.23530000       2.59870000
H        0.47300000       0.14100000       2.11720000
H        2.83260000      -0.53120000       2.00630000
H        2.78980000      -0.12310000       0.28320000
