17
Properties=species:S:1:pos:R:3 gdb_128427=T pbc="F F F"
C       -0.57000000       0.93360000      -0.80610000
N        0.08920000       0.36880000       0.36990000
H        0.78460000      -1.98490000      -0.27320000
H        0.52480000       1.10910000       0.90680000
C       -0.81410000      -0.39050000       1.23610000
C       -1.01380000      -1.77210000       0.68650000
N        0.11370000      -2.47400000       0.31180000
O       -0.30240000      -3.66240000      -0.30540000
C       -1.70150000      -3.76780000      -0.13580000
O       -2.28170000      -4.75160000      -0.50130000
C       -2.11580000      -2.53010000       0.50280000
H        0.15630000       1.50220000      -1.39270000
H       -0.95220000       0.12490000      -1.43750000
H       -1.41900000       1.59440000      -0.56290000
H       -0.34840000      -0.47350000       2.22460000
H       -1.79940000       0.08370000       1.37400000
H       -3.13410000      -2.29970000       0.76670000
