24
Properties=species:S:1:pos:R:3 gdb_13210=T pbc="F F F"
C        0.01290000       1.56530000      -0.09150000
C        0.08490000       0.03890000       0.02110000
C        0.69070000      -0.48570000       1.33680000
C       -0.16410000      -0.12400000       2.56040000
C        0.91560000      -1.99560000       1.26310000
C        1.94400000      -2.56810000       0.24330000
C        2.37640000      -3.60360000       1.31530000
C        1.71640000      -2.70480000       2.39460000
H        1.00370000       2.01710000       0.03330000
H       -0.36720000       1.86810000      -1.07240000
H       -0.64750000       2.00290000       0.66350000
H       -0.92150000      -0.38610000      -0.10050000
H        0.67910000      -0.34810000      -0.81600000
H        1.67860000      -0.01400000       1.46110000
H       -1.17280000      -0.54560000       2.46940000
H        0.27770000      -0.51860000       3.48100000
H       -0.26600000       0.95810000       2.68310000
H       -0.05170000      -2.49860000       1.12940000
H        1.56810000      -2.94660000      -0.71060000
H        2.74100000      -1.84460000       0.03800000
H        1.84450000      -4.55230000       1.19850000
H        3.44340000      -3.81710000       1.41440000
H        2.44340000      -2.02290000       2.84960000
H        1.15500000      -3.19430000       3.19440000
