12
Properties=species:S:1:pos:R:3 gdb_21451=T pbc="F F F"
N        0.18780000       1.28040000       0.00430000
C        0.04500000       0.01370000       0.00120000
N       -1.19140000      -0.57950000       0.01130000
C       -2.39400000       0.10050000       0.02530000
C       -2.71410000       1.42440000       0.03330000
O       -4.05300000       1.50730000       0.04690000
N       -4.55520000       0.19900000       0.04580000
N       -3.57450000      -0.60150000       0.03420000
H        1.17360000       1.52770000      -0.00450000
H        0.85140000      -0.72660000      -0.00940000
H       -1.25750000      -1.58390000       0.00810000
H       -2.13100000       2.32490000       0.03110000
