18
Properties=species:S:1:pos:R:3 gdb_12203=T pbc="F F F"
C        0.34020000       1.50360000      -0.25700000
C        0.06580000       0.04640000       0.05710000
O        0.80380000      -0.84670000      -0.81570000
C        1.35340000      -1.58640000       0.29960000
C        2.80470000      -1.67300000       0.27580000
C        4.00430000      -1.75510000       0.26830000
C        0.67960000      -0.61620000       1.32390000
C        1.58360000       0.20570000       2.22950000
H        1.40540000       1.73690000      -0.18580000
H        0.01290000       1.72510000      -1.27770000
H       -0.21260000       2.15860000       0.42530000
H       -1.01220000      -0.15000000      -0.03090000
H        0.93410000      -2.60140000       0.33430000
H        5.06370000      -1.82910000       0.25280000
H       -0.07290000      -1.13170000       1.92570000
H        2.39070000       0.68960000       1.67450000
H        1.00960000       0.97970000       2.74940000
H        2.04670000      -0.43330000       2.98780000
