16
Properties=species:S:1:pos:R:3 gdb_40388=T pbc="F F F"
C        0.21500000       1.55270000      -0.10080000
N        1.25400000       0.52200000      -0.21140000
C       -0.14050000       0.11480000       0.03900000
C       -0.41300000      -0.50830000       1.34930000
O       -0.74800000      -1.89680000       1.42180000
C       -1.63990000      -0.95300000       2.01640000
C       -1.03700000      -0.52200000       3.41570000
O        0.18440000      -1.23050000       3.60370000
C        0.19270000      -0.08700000       2.75430000
H        0.29180000       2.18700000       0.77830000
H       -0.12460000       2.06710000      -0.99600000
H        1.49990000       0.35980000      -1.18370000
H       -0.69860000      -0.33760000      -0.77760000
H       -2.67720000      -0.94700000       1.70420000
H       -1.56490000      -0.14780000       4.28360000
H        0.89130000       0.71250000       2.96370000
