16
Properties=species:S:1:pos:R:3 gdb_86516=T pbc="F F F"
C       -0.59560000       1.27830000       0.12100000
C        0.20340000       0.00730000      -0.05780000
C        1.08180000      -0.13780000      -1.32500000
C        2.24070000      -0.29880000      -0.30170000
O        1.38370000      -0.03190000       0.79760000
C        2.83510000      -1.69580000      -0.26730000
O        2.55700000      -2.55730000       0.52200000
C        3.80970000      -1.94030000      -1.35940000
N        4.55810000      -2.10200000      -2.22610000
H        0.02110000       2.15940000      -0.08080000
H       -1.45330000       1.28580000      -0.56030000
H       -0.97290000       1.34800000       1.14570000
H       -0.42070000      -0.87410000       0.13410000
H        0.87630000      -0.99410000      -1.96840000
H        1.15520000       0.76550000      -1.93160000
H        3.06140000       0.42610000      -0.39570000
