18
Properties=species:S:1:pos:R:3 gdb_17459=T pbc="F F F"
C       -0.04920000       1.49320000      -0.03610000
C        0.02530000      -0.00610000       0.03960000
C       -0.83330000      -0.81470000       0.98000000
C        0.68010000      -0.82180000       1.13030000
C        1.50930000      -1.87450000       0.42880000
C        0.83050000      -2.93550000      -0.41840000
C        1.27670000      -1.63950000      -1.04280000
O        0.34210000      -0.60170000      -1.20810000
H        0.90150000       1.91460000      -0.37880000
H       -0.83110000       1.80650000      -0.73610000
H       -0.28510000       1.91620000       0.94450000
H       -1.39120000      -0.26510000       1.73200000
H       -1.34470000      -1.69350000       0.60650000
H        1.11390000      -0.35130000       2.00500000
H        2.49520000      -2.07770000       0.82900000
H        1.41920000      -3.81620000      -0.65480000
H       -0.22840000      -3.12930000      -0.29830000
H        2.05560000      -1.63030000      -1.79810000
