20
Properties=species:S:1:pos:R:3 gdb_110300=T pbc="F F F"
C       -0.12920000       1.48840000      -0.05630000
N        0.12600000       0.05890000       0.04130000
C        1.42560000      -0.53820000      -0.14980000
C        0.73030000      -0.57150000       1.19150000
C        1.86240000       0.26350000       1.83300000
C        2.65170000      -0.50230000       2.87800000
O        3.87170000       0.21510000       3.10410000
C        2.57770000       0.30370000       0.43150000
O        3.78490000      -0.41810000       0.36300000
H        0.62470000       2.13790000       0.40950000
H       -0.20080000       1.75780000      -1.11440000
H       -1.09490000       1.70200000       0.41250000
H        1.55560000      -1.31300000      -0.89790000
H        0.19200000      -1.37780000       1.68170000
H        1.56980000       1.23600000       2.24290000
H        2.06860000      -0.58050000       3.80710000
H        2.86300000      -1.51790000       2.51830000
H        4.38990000      -0.26740000       3.75580000
H        2.69560000       1.30830000       0.00090000
H        4.32790000      -0.10980000       1.10230000
