17
Properties=species:S:1:pos:R:3 gdb_82128=T pbc="F F F"
O        0.21420000       1.36440000      -0.04910000
C        0.05250000      -0.02330000      -0.03220000
C        0.34440000      -0.71370000       1.31010000
O       -0.58260000      -0.11630000       2.23610000
C       -1.03810000      -1.20580000       1.41330000
C       -1.42290000      -0.62150000       0.05140000
C       -2.61200000       0.34320000       0.00130000
C       -2.85030000       0.87930000      -1.33330000
C       -3.04290000       1.29100000      -2.44570000
H       -0.09450000       1.68430000       0.80830000
H        0.61020000      -0.43000000      -0.87790000
H        1.27150000      -1.09710000       1.72010000
H       -1.42960000      -2.07520000       1.92860000
H       -1.54340000      -1.41190000      -0.69490000
H       -3.51150000      -0.18260000       0.34890000
H       -2.44580000       1.16150000       0.71020000
H       -3.21070000       1.67350000      -3.42170000
