17
Properties=species:S:1:pos:R:3 gdb_102838=T pbc="F F F"
O        0.20030000       1.14210000      -0.68470000
C       -0.61470000       0.89180000       0.43480000
C       -1.43160000      -0.39700000       0.26140000
O       -2.11600000      -0.70030000       1.48870000
C       -1.70910000      -1.77070000       2.20490000
O       -2.20700000      -2.07440000       3.24490000
C       -2.49650000      -0.33750000      -0.82200000
C       -3.36520000       0.82800000      -1.01750000
O       -2.27120000       0.56750000      -1.91050000
H       -0.39850000       1.25300000      -1.43550000
H        0.04600000       0.75800000       1.29740000
H       -1.28320000       1.73280000       0.67370000
H       -0.72760000      -1.20510000       0.02150000
H       -0.88060000      -2.32120000       1.71800000
H       -2.88380000      -1.30900000      -1.12930000
H       -4.35220000       0.68470000      -1.45130000
H       -3.25490000       1.70640000      -0.38750000
