16
Properties=species:S:1:pos:R:3 gdb_19517=T pbc="F F F"
C       -0.50820000       1.03660000       0.14670000
N        0.58980000       0.10190000      -0.07370000
C        1.04190000      -0.59070000       1.08670000
C        0.18750000      -1.53170000       1.91880000
O       -0.98570000      -2.03350000       1.28710000
C       -0.54600000      -2.73780000       0.21560000
N        0.70750000      -2.85220000       0.02310000
C        1.33760000      -2.07800000       1.07070000
H       -0.17180000       1.85220000       0.79710000
H       -0.79850000       1.47950000      -0.81040000
H       -1.39850000       0.58200000       0.60790000
H        0.38920000      -0.54400000      -0.82650000
H        1.74480000      -0.02810000       1.70050000
H        0.10550000      -1.49620000       2.99760000
H       -1.32810000      -3.16660000      -0.39910000
H        2.28260000      -2.45270000       1.44440000
