18
Properties=species:S:1:pos:R:3 gdb_105650=T pbc="F F F"
C        0.14030000       1.25970000      -0.02210000
O       -0.03820000      -0.14530000       0.09090000
C       -1.37030000      -0.61050000       0.05310000
C       -1.97170000      -0.65090000      -1.38600000
C       -1.36940000      -2.06930000      -1.56540000
C       -1.26900000      -2.18060000      -0.01690000
O       -0.17040000      -2.76970000       0.59030000
C       -2.18770000      -0.01710000       1.11600000
N       -2.85170000       0.44360000       1.94300000
H        1.21600000       1.43710000       0.02570000
H       -0.24380000       1.64420000      -0.97570000
H       -0.35300000       1.79000000       0.80140000
H       -3.06330000      -0.65020000      -1.36050000
H       -1.63220000       0.13640000      -2.06030000
H       -1.97360000      -2.81770000      -2.07970000
H       -0.37570000      -2.03500000      -2.01750000
H       -2.16910000      -2.63550000       0.40420000
H        0.57690000      -2.17380000       0.44840000
