16
Properties=species:S:1:pos:R:3 gdb_54931=T pbc="F F F"
O       -0.19170000      -0.04170000       0.47170000
C        0.05440000       1.22510000       0.10500000
O        1.13410000       1.61550000      -0.24870000
C       -1.18540000       2.11500000       0.13780000
C       -1.96260000       2.24560000      -1.20390000
C       -3.24680000       1.86640000      -0.39890000
N       -2.37000000       1.45380000       0.74610000
H       -1.14210000      -0.06060000       0.71570000
H       -2.66210000       1.81730000       1.64730000
C       -4.14040000       2.97510000      -0.10900000
C       -4.87220000       3.89190000       0.15560000
H       -0.91490000       3.08330000       0.56730000
H       -1.96290000       3.23120000      -1.66400000
H       -1.68620000       1.49250000      -1.94280000
H       -3.81880000       1.02520000      -0.80350000
H       -5.52420000       4.69980000       0.38100000
