17
Properties=species:S:1:pos:R:3 gdb_69170=T pbc="F F F"
C        0.01200000       1.53450000      -0.00310000
C        0.01530000       0.03550000      -0.00390000
C       -0.87330000      -0.84480000       0.80530000
C        0.62830000      -0.95690000       1.03940000
C        1.25410000      -1.72960000      -0.08710000
O        2.09900000      -2.57460000      -0.15980000
C        0.58730000      -0.81660000      -1.13500000
C        0.16610000      -1.02690000      -2.52100000
O        1.34230000      -0.26980000      -2.19690000
H        0.97500000       1.92680000      -0.34180000
H       -0.76100000       1.92360000      -0.67590000
H       -0.19240000       1.92660000       0.99760000
H       -1.40540000      -0.36240000       1.62000000
H       -1.41800000      -1.66580000       0.34680000
H        1.06830000      -0.76630000       2.01000000
H        0.35220000      -1.98670000      -2.99950000
H       -0.66460000      -0.44740000      -2.92150000
