20
Properties=species:S:1:pos:R:3 gdb_14059=T pbc="F F F"
C       -0.07040000       1.54330000      -0.29700000
C        0.02260000       0.04240000      -0.12890000
C        1.35990000      -0.65160000      -0.08390000
O        2.49490000       0.15790000      -0.20530000
C        0.51350000      -0.56620000       1.16140000
C        0.94830000       0.14120000       2.45140000
C        0.66450000      -1.18540000       3.21900000
C       -0.04670000      -1.75400000       1.95430000
H        0.79520000       2.04230000       0.14330000
H       -0.10380000       1.81670000      -1.35700000
H       -0.97550000       1.93680000       0.17870000
H       -0.76180000      -0.51980000      -0.63260000
H        1.44160000      -1.62480000      -0.57210000
H        3.17810000      -0.19610000       0.37370000
H        1.97500000       0.51840000       2.47740000
H        0.28120000       0.95800000       2.74440000
H        1.57920000      -1.73010000       3.46630000
H        0.05850000      -1.10430000       4.12390000
H       -1.13850000      -1.73620000       2.03680000
H        0.25580000      -2.75300000       1.62480000
