18
Properties=species:S:1:pos:R:3 gdb_37620=T pbc="F F F"
C       -0.01420000       1.49300000      -0.03020000
C        1.51930000       1.83070000       0.07500000
C        1.84070000       1.67710000       1.53570000
C        1.48850000       0.49330000       2.05310000
C        0.98800000      -0.50050000       1.05700000
C        1.99350000      -0.71160000      -0.08500000
C        2.08650000       0.64570000      -0.76250000
C        0.95540000      -0.30760000      -1.07910000
N       -0.02560000       0.02680000      -0.01380000
H       -0.59920000       1.92230000       0.78590000
H       -0.42640000       1.82040000      -0.99110000
H        1.79690000       2.80350000      -0.33360000
H        2.24740000       2.49620000       2.11890000
H        1.58180000       0.23280000       3.10140000
H        0.59040000      -1.41790000       1.49090000
H        2.77090000      -1.46410000      -0.13210000
H        2.89660000       0.80560000      -1.46310000
H        0.65460000      -0.68190000      -2.04890000
