18
Properties=species:S:1:pos:R:3 gdb_128845=T pbc="F F F"
C       -0.17030000       1.36350000       0.02770000
O        0.05750000      -0.02350000      -0.04020000
C        0.61530000      -0.54620000       1.14320000
C        0.83470000      -2.04750000       0.94180000
C        1.40750000      -2.70480000       2.15700000
N        2.71200000      -2.64620000       2.44990000
N        2.80100000      -3.31290000       3.59290000
N        1.67570000      -3.81130000       4.08250000
C        0.76970000      -3.43170000       3.18070000
H        0.76340000       1.92370000       0.19500000
H       -0.60060000       1.67220000      -0.92810000
H       -0.87380000       1.62400000       0.83470000
H        1.57490000      -0.05630000       1.37630000
H       -0.05620000      -0.37030000       2.00150000
H       -0.12330000      -2.51010000       0.68510000
H        1.50500000      -2.18880000       0.08880000
H        3.68440000      -3.44840000       4.05730000
H       -0.27060000      -3.69230000       3.29630000
