20
Properties=species:S:1:pos:R:3 gdb_116743=T pbc="F F F"
C       -0.45300000       1.28480000      -0.71180000
C        0.31180000       0.16370000       0.01720000
C        1.26070000      -0.54150000      -0.93930000
O        2.39820000      -0.17270000      -1.10810000
C        0.68790000      -1.76660000      -1.67430000
N        1.33350000      -2.05250000      -2.92890000
C        2.51490000      -2.49090000      -2.87990000
O        3.19210000      -2.72830000      -4.01650000
C        4.53340000      -3.17380000      -3.85090000
H        0.24500000       2.02290000      -1.11610000
H       -1.04770000       0.89130000      -1.54200000
H       -1.13250000       1.79450000      -0.02330000
H        0.90580000       0.58650000       0.83220000
H       -0.39830000      -0.55660000       0.44010000
H        0.76180000      -2.59160000      -0.94100000
H       -0.38420000      -1.61600000      -1.84050000
H        3.07080000      -2.72680000      -1.96180000
H        5.15080000      -2.40740000      -3.36810000
H        4.58080000      -4.10000000      -3.26510000
H        4.91850000      -3.36620000      -4.85290000
