21
Properties=species:S:1:pos:R:3 gdb_61657=T pbc="F F F"
C       -0.02850000       1.61900000       0.08500000
C       -0.08180000       0.08110000       0.03780000
C        0.69810000      -0.57080000       1.20590000
N        2.10670000      -0.26390000       1.11880000
C        2.95130000      -1.01570000       0.16270000
C        4.08800000      -1.00610000       1.21230000
C        2.98370000      -0.66200000       2.24060000
C       -1.46580000      -0.40060000       0.03260000
N       -2.55800000      -0.77900000       0.04460000
H        1.01560000       1.93280000       0.13500000
H       -0.49860000       2.05750000      -0.79830000
H       -0.54800000       1.99430000       0.97150000
H        0.37600000      -0.26010000      -0.90020000
H        0.31390000      -0.17460000       2.15320000
H        0.50580000      -1.66020000       1.20680000
H        2.57310000      -2.03340000      -0.03160000
H        3.12840000      -0.51680000      -0.79560000
H        4.63560000      -1.93650000       1.36120000
H        4.79330000      -0.18730000       1.06140000
H        3.17930000       0.12790000       2.97290000
H        2.62290000      -1.55740000       2.77210000
