20
Properties=species:S:1:pos:R:3 gdb_120511=T pbc="F F F"
C        0.43710000       1.51660000       0.27190000
N        0.42320000       0.06050000       0.25430000
C        0.45670000      -0.53700000      -0.84220000
C        0.46650000      -1.98770000      -1.27000000
C        0.53170000      -1.40300000      -2.69860000
C       -0.63400000      -1.65510000      -3.63220000
C       -0.58740000      -0.78610000      -4.89330000
O       -1.65340000      -1.06520000      -5.78550000
O        0.50860000      -0.04220000      -2.14020000
H        1.29720000       1.85870000       0.85800000
H        0.48320000       1.97790000      -0.72160000
H       -0.46110000       1.87720000       0.78550000
H        1.33600000      -2.55910000      -0.94120000
H       -0.44420000      -2.54180000      -1.03260000
H        1.48960000      -1.56310000      -3.20560000
H       -0.63330000      -2.71230000      -3.92530000
H       -1.57090000      -1.46960000      -3.08960000
H       -0.56090000       0.27560000      -4.60900000
H        0.33100000      -0.99450000      -5.45390000
H       -2.47000000      -0.76720000      -5.37240000
