15
Properties=species:S:1:pos:R:3 gdb_11935=T pbc="F F F"
O       -0.03000000       1.45170000       0.05070000
C       -0.03470000       0.07600000       0.03970000
C       -0.30110000      -0.75600000      -1.17740000
C       -1.19870000      -0.94140000       0.03450000
N       -0.46440000      -1.82240000       0.98270000
C        0.59480000      -0.76380000       1.14830000
C       -2.60720000      -0.79740000       0.03330000
C       -3.80490000      -0.67670000       0.07120000
H        0.38540000       1.76880000      -0.75800000
H       -0.77260000      -0.21370000      -1.99150000
H        0.35640000      -1.57240000      -1.46730000
H       -0.99830000      -1.91570000       1.84180000
H        1.61650000      -1.12730000       0.99200000
H        0.53280000      -0.24650000       2.11040000
H       -4.86120000      -0.57160000       0.09240000
