18
Properties=species:S:1:pos:R:3 gdb_47050=T pbc="F F F"
O       -0.08550000      -0.10100000      -0.07290000
C       -0.07710000       1.11330000      -0.03020000
C       -1.32890000       1.96430000      -0.21510000
C       -1.27570000       3.25650000       0.61000000
C       -0.06350000       4.07370000       0.17650000
O        0.48840000       4.90690000       1.21990000
C        1.64820000       4.05780000       1.35200000
C        1.24240000       3.24820000       0.09640000
N        1.07800000       1.81930000       0.20940000
H       -1.42730000       2.19620000      -1.28450000
H       -2.18220000       1.33770000       0.05010000
H       -2.19560000       3.83800000       0.49870000
H       -1.17300000       3.01360000       1.67290000
H       -0.28690000       4.66210000      -0.72090000
H        2.58160000       4.62740000       1.28950000
H        1.63400000       3.47200000       2.28000000
H        1.85470000       3.50610000      -0.77450000
H        1.90420000       1.24050000       0.27460000
