21
Properties=species:S:1:pos:R:3 gdb_91743=T pbc="F F F"
O        0.03260000       1.40980000      -0.17100000
C        0.01480000       0.00000000      -0.00620000
C        0.63060000      -0.50870000       1.34010000
C       -0.51610000      -1.32830000       1.97360000
C       -1.22580000      -1.89580000       0.72310000
C       -1.43640000      -0.51350000       0.07120000
C       -2.16810000       0.26220000       1.19180000
C       -1.57330000      -0.34360000       2.50290000
O       -2.52580000      -1.09070000       3.25210000
H        0.95060000       1.69600000      -0.18980000
H        0.52110000      -0.47790000      -0.85770000
H        1.51210000      -1.13300000       1.16750000
H        0.93620000       0.33750000       1.96500000
H       -0.20020000      -2.04580000       2.73200000
H       -0.59300000      -2.56470000       0.13110000
H       -2.16020000      -2.40600000       0.96600000
H       -1.95030000      -0.49500000      -0.89120000
H       -2.01010000       1.33850000       1.10910000
H       -3.24380000       0.06240000       1.15760000
H       -1.11670000       0.42760000       3.14030000
H       -3.26630000      -0.50910000       3.45070000
