19
Properties=species:S:1:pos:R:3 gdb_45748=T pbc="F F F"
O        0.23030000       0.09360000       0.00950000
C        0.06170000       1.28420000       0.02270000
C       -1.29750000       2.00270000      -0.01680000
C       -0.91790000       3.45680000       0.05280000
C        0.40260000       3.64170000       0.09850000
C        1.18250000       2.35040000       0.08840000
C        2.10500000       2.15280000       1.27950000
C        3.21020000       1.13280000       1.21920000
C        3.54500000       2.60360000       1.21390000
H       -1.83460000       1.73010000      -0.93490000
H       -1.93020000       1.66540000       0.81430000
H       -1.65550000       4.25120000       0.05880000
H        0.89430000       4.60640000       0.15440000
H        1.78770000       2.25100000      -0.82550000
H        1.61110000       2.27170000       2.24030000
H        3.42350000       0.55700000       2.11240000
H        3.32870000       0.57610000       0.29670000
H        3.89800000       3.04170000       0.28570000
H        3.98770000       3.03770000       2.10350000
