16
Properties=species:S:1:pos:R:3 gdb_128743=T pbc="F F F"
C       -0.25630000       1.33680000      -0.15410000
O        0.40440000       0.10950000       0.10780000
C        0.75820000      -0.57290000      -1.05060000
C        1.32030000      -2.01990000      -0.74200000
N        0.17350000      -2.50660000      -1.53260000
N       -0.46070000      -3.51210000      -2.16660000
C       -1.39360000      -2.80190000      -2.81760000
N       -1.36560000      -1.43610000      -2.66250000
C       -0.34200000      -1.32010000      -1.83280000
H        0.38470000       2.02140000      -0.72930000
H       -1.18990000       1.17670000      -0.70990000
H       -0.48360000       1.78730000       0.81360000
H        1.41740000       0.02980000      -1.69220000
H        2.29290000      -2.25620000      -1.17790000
H        1.28080000      -2.28980000       0.31440000
H       -2.13150000      -3.29590000      -3.43270000
