19
Properties=species:S:1:pos:R:3 gdb_39831=T pbc="F F F"
C       -0.08330000       1.43670000       0.01210000
C        1.30320000       0.84360000       0.02610000
C        1.95200000       0.61790000       1.38150000
N        1.11800000       1.00840000       2.54050000
C        1.18140000      -0.41350000       2.11980000
C        0.02370000      -0.85070000       1.25060000
C       -0.43630000      -2.26200000       1.30460000
N       -1.29040000      -1.18280000       1.82760000
C        0.08620000      -0.06150000      -0.04150000
H       -0.44620000       1.88480000       0.92820000
H       -0.40540000       1.92130000      -0.90340000
H        1.95900000       0.98210000      -0.82520000
H        3.03030000       0.69670000       1.46560000
H        1.71490000       1.13870000       3.35410000
H        1.64390000      -1.13420000       2.78850000
H       -0.80980000      -2.74230000       0.40350000
H        0.05360000      -2.93810000       2.00240000
H       -1.23780000      -1.15010000       2.84320000
H       -0.18630000      -0.57550000      -0.95670000
