20
Properties=species:S:1:pos:R:3 gdb_78538=T pbc="F F F"
C       -0.17550000       1.62480000       0.09140000
C        0.11690000       0.14020000      -0.04140000
C        0.69600000      -0.67290000      -1.19480000
C        2.03760000      -0.17110000      -1.81790000
C        2.53700000      -0.59470000      -3.16220000
N        2.41830000       1.12630000      -1.19530000
C        2.67720000      -0.15770000      -0.48720000
C        1.36270000      -0.67790000       0.17460000
O        1.42090000      -1.75020000       1.05220000
H        0.62560000       2.23900000      -0.30710000
H       -1.10550000       1.86430000      -0.43790000
H       -0.32980000       1.87950000       1.14710000
H       -0.70320000      -0.45750000       0.36470000
H        0.12810000      -1.47100000      -1.65800000
H        1.98820000      -0.09170000      -3.96780000
H        3.60030000      -0.35660000      -3.27770000
H        2.41810000      -1.67460000      -3.30240000
H        3.30410000       1.40400000      -1.62180000
H        3.67270000      -0.45710000      -0.18230000
H        1.45420000      -1.39980000       1.94970000
