17
Properties=species:S:1:pos:R:3 gdb_29190=T pbc="F F F"
C        0.00070000       1.54830000       0.00840000
C        0.00610000       0.04410000       0.00170000
C       -0.04970000      -0.66550000      -1.15660000
N       -0.03170000      -2.02350000      -1.17500000
C        0.04440000      -2.84580000      -0.02730000
O        0.05110000      -4.06190000      -0.15740000
C        0.09840000      -2.09220000       1.19470000
C        0.08620000      -0.71740000       1.22690000
N        0.20440000      -0.02570000       2.41750000
H        0.89300000       1.95740000       0.49760000
H       -0.02670000       1.94050000      -1.01160000
H       -0.87310000       1.96040000       0.53240000
H       -0.10970000      -0.17770000      -2.12320000
H       -0.07360000      -2.52780000      -2.04850000
H        0.15430000      -2.67070000       2.10980000
H        0.03170000      -0.55670000       3.25720000
H       -0.17980000       0.90500000       2.44740000
