21
Properties=species:S:1:pos:R:3 gdb_103185=T pbc="F F F"
C       -0.05290000       1.57700000      -0.17170000
O       -0.23870000       0.17410000      -0.25300000
C        0.59350000      -0.49830000      -1.15980000
C        0.31340000      -0.12680000      -2.61570000
C        2.13170000      -0.53790000      -0.81420000
O        2.40000000      -0.26550000       0.54000000
C        2.10740000      -2.05550000      -1.16240000
C        0.56920000      -2.04390000      -0.94190000
O        0.23040000      -2.31340000       0.41020000
H        0.98890000       1.83160000       0.05520000
H       -0.36220000       2.09400000      -1.09060000
H       -0.68830000       1.92380000       0.64690000
H        0.58680000       0.91230000      -2.82120000
H        0.88290000      -0.75610000      -3.30590000
H       -0.75140000      -0.25530000      -2.83400000
H        2.79440000       0.09760000      -1.40750000
H        1.69050000      -0.68530000       1.04630000
H        2.39740000      -2.27290000      -2.19340000
H        2.67800000      -2.69330000      -0.48280000
H       -0.05770000      -2.62430000      -1.63160000
H        0.49710000      -3.21980000       0.59780000
