14
Properties=species:S:1:pos:R:3 gdb_6428=T pbc="F F F"
O        0.12010000       1.51830000      -0.24690000
C        0.01140000       0.12730000      -0.00990000
C        0.18920000      -0.31140000       1.49610000
C       -1.24410000      -0.85990000       1.45490000
O       -1.89720000      -1.52090000       2.20670000
C       -1.49600000      -0.28710000       0.05470000
C        0.81990000      -0.64940000      -0.94120000
C        1.51770000      -1.26950000      -1.69910000
H        1.05310000       1.72950000      -0.36340000
H        0.97560000      -1.03370000       1.72400000
H        0.28500000       0.56130000       2.14960000
H       -2.13740000       0.59950000       0.07130000
H       -1.85670000      -0.98550000      -0.70200000
H        2.12300000      -1.82160000      -2.37540000
