18
Properties=species:S:1:pos:R:3 gdb_89604=T pbc="F F F"
O       -0.17940000       1.46640000      -0.14550000
C       -0.06400000       0.06600000      -0.03990000
C        0.35920000      -0.55150000       1.34300000
C       -0.99190000      -1.27630000       1.39030000
C       -1.18860000      -2.69780000       1.86100000
C       -1.07170000      -2.82540000       3.31730000
N       -0.97000000      -2.90930000       4.46520000
C       -2.09920000      -0.26560000       1.34290000
C       -1.40900000      -0.64340000       0.05750000
H        0.70610000       1.84390000      -0.15140000
H        0.55000000      -0.34360000      -0.85280000
H        1.21740000      -1.22330000       1.25690000
H        0.54180000       0.16550000       2.14870000
H       -2.17650000      -3.06570000       1.56030000
H       -0.44930000      -3.36520000       1.40040000
H       -3.10280000      -0.66460000       1.45300000
H       -1.96050000       0.72570000       1.76270000
H       -1.94960000      -1.07990000      -0.77380000
