17
Properties=species:S:1:pos:R:3 gdb_24678=T pbc="F F F"
C       -0.03190000       1.49840000       0.05670000
C        1.39950000       2.06910000      -0.02920000
C        2.21130000       1.33390000      -1.04860000
N        3.22440000       1.75200000      -1.76870000
C        3.65590000       0.64330000      -2.47170000
C        2.89780000      -0.45200000      -2.16630000
N        1.96280000      -0.00380000      -1.25060000
C        0.91300000      -0.68930000      -0.62040000
C       -0.03690000      -0.01220000       0.02570000
H       -0.52210000       1.86460000       0.96370000
H       -0.63250000       1.87290000      -0.78590000
H        1.39220000       3.13450000      -0.26870000
H        1.88620000       1.96760000       0.95160000
H        4.48700000       0.70390000      -3.15760000
H        2.90890000      -1.47320000      -2.50960000
H        0.94480000      -1.76840000      -0.70440000
H       -0.84500000      -0.55470000       0.50170000
