19
Properties=species:S:1:pos:R:3 gdb_109594=T pbc="F F F"
C        0.42220000       0.72700000      -0.45980000
O       -0.01560000      -0.51200000       0.07820000
C       -1.41390000      -0.64470000       0.16310000
C       -2.09160000      -1.16760000      -1.15760000
O       -1.36760000      -1.03810000      -2.34330000
C       -2.11480000      -2.61160000      -0.55670000
O       -1.06410000      -3.37970000      -1.09750000
C       -1.71860000      -2.01780000       0.83640000
O       -0.60320000      -2.64600000       1.42470000
H        1.51440000       0.71150000      -0.44470000
H        0.06900000       0.85040000      -1.48780000
H        0.06740000       1.56710000       0.15510000
H       -1.86170000       0.24500000       0.62680000
H       -3.09000000      -0.74180000      -1.29970000
H       -0.75720000      -1.79260000      -2.33750000
H       -3.06070000      -3.16000000      -0.61650000
H       -0.47090000      -3.55610000      -0.34800000
H       -2.54720000      -1.98490000       1.54930000
H        0.13900000      -2.04000000       1.27040000
