19
Properties=species:S:1:pos:R:3 gdb_30795=T pbc="F F F"
C        0.12920000       1.47080000       0.06840000
C       -0.03920000      -0.00460000      -0.00040000
C       -1.11590000      -0.81920000      -0.16640000
C       -0.63260000      -2.17250000      -0.14560000
C       -1.44090000      -3.42800000      -0.27480000
C        0.71700000      -2.07660000       0.03300000
C        1.81600000      -3.08460000       0.13460000
O        1.77240000      -4.07090000      -0.89320000
O        1.08910000      -0.75900000       0.11710000
H        0.79080000       1.83910000      -0.72420000
H       -0.84110000       1.96010000      -0.04190000
H        0.56300000       1.78250000       1.02550000
H       -2.13990000      -0.50010000      -0.29270000
H       -2.11940000      -3.37620000      -1.13370000
H       -0.79010000      -4.29420000      -0.41060000
H       -2.06280000      -3.59890000       0.61220000
H        2.77460000      -2.54510000       0.14720000
H        1.75280000      -3.65360000       1.06930000
H        1.69630000      -3.60350000      -1.73210000
