17
Properties=species:S:1:pos:R:3 gdb_80727=T pbc="F F F"
O        0.06860000       1.41360000       0.10060000
C        0.03030000       0.01530000       0.09930000
C       -0.44930000      -0.78910000       1.27660000
C       -1.59840000      -0.05100000       1.97010000
N       -2.38250000      -0.08820000       0.70620000
C       -2.96830000       1.13760000       0.17670000
C       -4.14800000       1.52980000       0.95750000
N       -5.06090000       1.85540000       1.58610000
C       -1.27890000      -0.70440000      -0.01950000
H        0.76290000       1.69690000       0.70630000
H        0.83720000      -0.46360000      -0.45800000
H        0.09780000      -1.62770000       1.68610000
H       -2.08870000      -0.61470000       2.76780000
H       -1.35380000       0.95510000       2.33270000
H       -2.26650000       1.98380000       0.14950000
H       -3.28570000       0.94640000      -0.85500000
H       -1.47720000      -1.44250000      -0.79030000
