14
Properties=species:S:1:pos:R:3 gdb_435=T pbc="F F F"
C       -0.21620000       1.51650000       0.03090000
C        0.08020000       0.03020000       0.02870000
O        1.21590000      -0.31460000      -0.80720000
C        1.95810000      -0.83350000       0.31250000
C        0.77940000      -0.56660000       1.27550000
O        0.98020000       0.37410000       2.30320000
H        0.64290000       2.08740000       0.38870000
H       -0.45960000       1.84070000      -0.98550000
H       -1.07050000       1.73620000       0.67900000
H       -0.80650000      -0.53590000      -0.28650000
H        2.24670000      -1.88230000       0.16770000
H        2.85070000      -0.23470000       0.53650000
H        0.29950000      -1.47660000       1.65650000
H        1.41920000      -0.06540000       3.03760000
