17
Properties=species:S:1:pos:R:3 gdb_91442=T pbc="F F F"
O        0.41830000       1.03080000      -0.76190000
C        0.09150000      -0.12310000      -0.03960000
C        0.05440000      -0.08730000       1.52280000
C       -1.34350000      -0.74250000       1.48760000
O       -2.40140000       0.23730000       1.57810000
C       -2.53260000       0.30610000       0.15330000
C       -2.39680000       1.69090000      -0.43730000
O       -1.99480000       2.65690000       0.16260000
C       -1.36540000      -0.69660000      -0.06930000
H        0.05120000       1.79690000      -0.30660000
H        0.77380000      -0.90160000      -0.39410000
H        0.84670000      -0.65820000       2.01200000
H        0.01260000       0.91740000       1.95090000
H       -1.54080000      -1.62780000       2.09440000
H       -3.49720000      -0.10680000      -0.18310000
H       -2.70390000       1.75110000      -1.50620000
H       -1.56600000      -1.54180000      -0.72540000
