17
Properties=species:S:1:pos:R:3 gdb_124691=T pbc="F F F"
C        0.03190000       1.61320000       0.14820000
C       -0.03370000       0.08360000       0.08850000
C        0.77120000      -0.55700000       1.24350000
O        2.13870000      -0.18970000       1.22050000
C       -1.43850000      -0.43260000       0.09540000
C       -2.63630000       0.16190000       0.34190000
O       -3.60910000      -0.74200000       0.23910000
N       -2.97050000      -1.97530000      -0.09190000
N       -1.73540000      -1.75960000      -0.16440000
H        1.07510000       1.93230000       0.18760000
H       -0.44490000       2.07140000      -0.72320000
H       -0.46370000       1.99160000       1.04980000
H        0.43190000      -0.25470000      -0.84840000
H        0.37710000      -0.19840000       2.20130000
H        0.64200000      -1.64740000       1.21930000
H        2.55860000      -0.65120000       0.48750000
H       -2.92890000       1.17010000       0.58260000
