21
Properties=species:S:1:pos:R:3 gdb_59202=T pbc="F F F"
C        0.51430000       0.88860000       0.61780000
C        0.22230000      -0.61310000       0.60700000
O        0.56590000      -1.21600000       1.85820000
C       -1.25460000      -0.90480000       0.41560000
C       -1.87030000      -0.84070000      -1.00840000
O       -1.09990000      -2.05350000      -1.37230000
C       -1.67920000      -2.32860000      -0.03260000
C       -3.03420000      -1.77670000      -0.56610000
C       -4.18700000      -1.34280000       0.32390000
H        1.58200000       1.07470000       0.78170000
H        0.24290000       1.35080000      -0.33720000
H       -0.04350000       1.38510000       1.41860000
H        0.77720000      -1.08960000      -0.21110000
H        1.50880000      -1.08460000       1.99870000
H       -1.83750000      -0.45850000       1.22510000
H       -1.87750000      -0.01940000      -1.72780000
H       -1.44760000      -3.29040000       0.42540000
H       -3.38220000      -2.37350000      -1.41340000
H       -3.87540000      -0.73950000       1.17980000
H       -4.91010000      -0.75530000      -0.25210000
H       -4.71590000      -2.22000000       0.71150000
