19
Properties=species:S:1:pos:R:3 gdb_89459=T pbc="F F F"
C       -0.15060000       1.58120000       0.25190000
C        0.01390000       0.09070000       0.17350000
O        0.87660000      -0.34750000      -0.91030000
C        1.71110000      -1.12520000      -0.02150000
C        0.78770000      -0.82340000       1.17340000
O        1.34410000      -0.29930000       2.34240000
C       -0.45350000      -1.74790000       1.29090000
C       -1.22710000      -0.85720000       0.26400000
O       -2.45350000      -0.31670000       0.69420000
H        0.81550000       2.07050000       0.40090000
H       -0.59300000       1.95420000      -0.67780000
H       -0.81280000       1.86500000       1.07490000
H        1.80560000      -2.16980000      -0.34370000
H        2.70790000      -0.68000000       0.08970000
H        1.66200000      -1.02800000       2.88700000
H       -0.32240000      -2.80350000       1.03930000
H       -0.90180000      -1.67370000       2.28690000
H       -1.42380000      -1.33570000      -0.69740000
H       -2.33920000       0.03960000       1.58160000
