15
Properties=species:S:1:pos:R:3 gdb_29125=T pbc="F F F"
C       -0.03040000       1.51070000      -0.02390000
C       -0.05240000       0.01190000       0.00620000
C       -1.17530000      -0.73640000      -0.11840000
C       -1.11960000      -2.16630000      -0.08020000
O       -2.30540000      -2.82850000      -0.21460000
C        0.08430000      -2.75340000       0.08380000
O        1.22400000      -2.03330000       0.21120000
C        1.24380000      -0.64450000       0.18330000
O        2.30620000      -0.08840000       0.30450000
H        0.61370000       1.87030000      -0.83320000
H       -1.03450000       1.91910000      -0.15910000
H        0.39560000       1.90840000       0.90320000
H       -2.14780000      -0.27160000      -0.25070000
H       -2.15250000      -3.77870000      -0.17470000
H        0.26250000      -3.82130000       0.12950000
