19
Properties=species:S:1:pos:R:3 gdb_42052=T pbc="F F F"
C        0.15130000       1.51630000       0.19190000
O        1.44880000       1.46710000      -0.44370000
C        1.39360000       0.02550000      -0.55880000
C        2.47990000      -0.66640000       0.25820000
O        2.26540000      -2.06910000       0.30090000
C        1.42270000      -2.49530000       1.35500000
C       -0.03690000      -2.06430000       1.21260000
O       -0.19110000      -0.65290000       1.28960000
C       -0.03030000      -0.00260000       0.05510000
H        0.20580000       1.85510000       1.23270000
H       -0.55430000       2.14240000      -0.36490000
H        1.44610000      -0.29580000      -1.60650000
H        3.45490000      -0.50210000      -0.21240000
H        2.51000000      -0.23750000       1.26890000
H        1.47360000      -3.59010000       1.36320000
H        1.80540000      -2.12650000       2.32000000
H       -0.45470000      -2.44710000       0.26940000
H       -0.61450000      -2.49200000       2.04070000
H       -0.81150000      -0.31800000      -0.64940000
