17
Properties=species:S:1:pos:R:3 gdb_49025=T pbc="F F F"
O       -0.42200000       0.50630000       0.73460000
C        0.06090000       1.16720000      -0.15110000
C        1.33930000       1.93550000      -0.01820000
O        1.50490000       2.95700000      -1.03140000
C        2.74910000       2.36910000      -1.50170000
C        2.71520000       1.30350000      -0.38920000
C        3.23080000       1.66560000       1.01890000
C        3.05910000       3.12220000       1.35100000
C        1.85500000       2.23540000       1.40480000
H       -0.40110000       1.24010000      -1.16020000
H        2.63310000       1.96800000      -2.51530000
H        3.57900000       3.08350000      -1.48590000
H        2.80160000       0.25460000      -0.66710000
H        3.87990000       1.02410000       1.60120000
H        3.45440000       3.40610000       2.32080000
H        3.12950000       3.89870000       0.59730000
H        1.26360000       2.06840000       2.29520000
