15
Properties=species:S:1:pos:R:3 gdb_25899=T pbc="F F F"
C        0.05060000       1.43650000       0.00570000
C        0.00370000      -0.07530000      -0.03100000
O        1.03520000      -0.74080000      -0.08070000
C       -1.28710000      -0.75110000      -0.00690000
C       -2.56760000      -0.26330000       0.04620000
O       -3.45440000      -1.26290000       0.04940000
C       -2.75810000      -2.45370000      -0.00300000
C       -1.42410000      -2.19270000      -0.03890000
O       -0.40540000      -3.06270000      -0.09330000
H        1.08880000       1.76830000      -0.01920000
H       -0.48990000       1.85590000      -0.84960000
H       -0.43330000       1.81130000       0.91390000
H       -2.97410000       0.73470000       0.08440000
H       -3.34910000      -3.35140000      -0.00680000
H        0.40400000      -2.51340000      -0.10520000
