16
Properties=species:S:1:pos:R:3 gdb_17898=T pbc="F F F"
O       -0.06010000       1.37450000      -0.06430000
C        0.01540000      -0.03180000      -0.01810000
C        0.15080000      -0.63920000       1.41760000
C       -1.37940000      -0.41750000       1.56910000
C       -1.41280000      -0.64420000       0.03150000
O       -1.29720000      -2.02910000      -0.29490000
C       -0.61250000      -2.74630000       0.71100000
O        0.46940000      -2.02260000       1.26180000
H        0.81800000       1.72860000       0.11040000
H        0.68630000      -0.45710000      -0.77380000
H        0.85550000      -0.21280000       2.13530000
H       -1.96230000      -1.05940000       2.23050000
H       -1.58150000       0.63020000       1.78960000
H       -2.20290000      -0.21450000      -0.58540000
H       -1.31440000      -3.03030000       1.50970000
H       -0.20270000      -3.64850000       0.25040000
