18
Properties=species:S:1:pos:R:3 gdb_36466=T pbc="F F F"
C       -0.06790000      -1.13760000      -0.29760000
C       -0.06260000       0.06370000      -0.25850000
C       -0.01840000       1.51970000      -0.20570000
C        1.38180000       2.03510000       0.16390000
C        2.44580000       1.86080000      -0.95700000
C        2.26260000       3.35000000      -1.35230000
C        1.56080000       3.59120000       0.02200000
C        0.38260000       4.43990000       0.06080000
N       -0.56840000       5.09840000       0.07680000
H       -0.09130000      -2.19860000      -0.33230000
H       -0.32750000       1.93200000      -1.17500000
H       -0.74920000       1.89090000       0.52320000
H        1.65820000       1.64340000       1.14480000
H        3.44040000       1.65770000      -0.55300000
H        2.22050000       1.11090000      -1.71740000
H        3.15820000       3.94330000      -1.54210000
H        1.57130000       3.48380000      -2.18650000
H        2.27780000       3.95400000       0.76370000
