14
Properties=species:S:1:pos:R:3 gdb_12301=T pbc="F F F"
N        0.03190000       1.10030000       0.67850000
C        0.00420000      -0.00230000       0.06470000
O        1.12470000      -0.53460000      -0.51200000
C        0.99950000      -1.79870000      -1.16420000
C        0.12530000      -2.70440000      -0.33080000
O       -1.18280000      -2.13970000      -0.23620000
C       -1.28040000      -0.78880000      -0.04410000
N       -2.39790000      -0.20640000       0.02980000
H        0.97710000       1.48980000       0.64540000
H        0.56950000      -1.66840000      -2.16590000
H        2.01300000      -2.19470000      -1.26300000
H        0.00290000      -3.68620000      -0.79440000
H        0.55580000      -2.83540000       0.67070000
H       -3.15090000      -0.89290000      -0.05830000
