16
Properties=species:S:1:pos:R:3 gdb_23264=T pbc="F F F"
N       -0.05190000       1.34370000      -0.19880000
C       -0.01840000      -0.00830000      -0.03500000
N       -1.07070000      -0.74940000       0.04720000
C       -0.66190000      -2.13410000       0.06240000
C       -0.04680000      -2.65340000      -1.20470000
C        0.84980000      -2.21290000      -0.04480000
C        1.26650000      -0.79170000      -0.03280000
N        2.49220000      -0.43640000       0.03050000
O        2.65500000       0.96020000       0.09270000
H        0.77860000       1.85870000       0.03910000
H       -0.94600000       1.78300000      -0.04550000
H       -1.23700000      -2.79610000       0.69920000
H       -0.07150000      -3.72170000      -1.39380000
H       -0.10730000      -2.02710000      -2.08860000
H        1.46210000      -2.95140000       0.45420000
H        3.61180000       1.05230000       0.13950000
