13
Properties=species:S:1:pos:R:3 gdb_9016=T pbc="F F F"
N        0.30910000       1.04190000       0.85350000
C        0.17850000      -0.14780000       0.17380000
N        1.07170000      -0.83410000      -0.42880000
C        2.44700000      -0.33420000      -0.43210000
C        3.04980000      -0.14300000       0.89110000
C        3.51420000       0.02660000       1.98800000
C       -1.18850000      -0.63790000       0.10100000
N       -2.28630000      -0.99720000       0.06870000
H        1.21820000       1.23430000       1.25300000
H       -0.47400000       1.33650000       1.41590000
H        3.05380000      -1.04910000      -0.99650000
H        2.49410000       0.61920000      -0.98260000
H        3.94860000       0.14920000       2.94990000
