20
Properties=species:S:1:pos:R:3 gdb_112768=T pbc="F F F"
C       -0.11950000       1.58650000       0.10490000
C        0.01450000       0.06640000      -0.03440000
C        0.72280000      -0.56780000       1.15460000
C        0.03290000      -0.57730000       2.54750000
C        0.64410000      -1.97700000       2.80320000
O       -0.05350000      -2.94960000       3.51150000
C        0.85300000      -2.13240000       1.24330000
C       -0.25840000      -2.85380000       0.64870000
N       -1.17680000      -3.42840000       0.24070000
H        0.86170000       2.06740000       0.18650000
H       -0.62990000       2.01610000      -0.76190000
H       -0.69580000       1.85490000       0.99670000
H       -0.97820000      -0.38490000      -0.14910000
H        0.56730000      -0.17300000      -0.95190000
H        1.73340000      -0.15460000       1.24620000
H        0.26940000       0.21820000       3.25620000
H       -1.05580000      -0.64810000       2.44150000
H        1.62540000      -1.89710000       3.27810000
H       -0.89350000      -3.11600000       3.06560000
H        1.79550000      -2.57490000       0.91300000
