15
Properties=species:S:1:pos:R:3 gdb_55556=T pbc="F F F"
N       -0.03310000       0.55850000       1.35340000
C        0.07610000      -0.08660000       0.13370000
O        0.96070000       0.12090000      -0.65630000
N       -1.00130000      -0.96930000      -0.08320000
C       -1.21460000      -1.76770000      -1.19610000
O       -0.50090000      -1.88140000      -2.15980000
C       -2.50010000      -2.56270000      -1.08370000
C       -2.67960000      -3.54900000      -0.00500000
O       -3.35870000      -2.29150000       0.03010000
H        0.79740000       1.06930000       1.61030000
H       -0.50930000       0.10440000       2.11720000
H       -1.78450000      -0.95110000       0.55760000
H       -2.99350000      -2.72770000      -2.03800000
H       -3.31390000      -4.41560000      -0.17760000
H       -1.89350000      -3.67790000       0.73650000
