21
Properties=species:S:1:pos:R:3 gdb_71232=T pbc="F F F"
C       -0.05950000       1.53440000       0.01350000
C        0.03470000       0.02040000       0.01090000
C        1.05010000      -0.68450000      -0.94280000
C        1.25580000      -1.70750000       0.17980000
C       -0.07140000      -2.49630000       0.53070000
C       -0.09080000      -1.78810000       1.91400000
C        0.74960000      -0.68630000       1.24400000
O       -1.15090000      -2.07460000      -0.28630000
C       -1.32050000      -0.65820000      -0.21430000
H        0.92170000       1.98800000       0.18860000
H       -0.43470000       1.91220000      -0.94500000
H       -0.73540000       1.89070000       0.80020000
H        0.67250000      -1.03350000      -1.90880000
H        1.95000000      -0.08090000      -1.09820000
H        2.18200000      -2.27550000       0.28000000
H       -0.05470000      -3.58640000       0.48800000
H       -1.06580000      -1.55960000       2.35490000
H        0.51050000      -2.33660000       2.64570000
H        1.40790000      -0.03940000       1.82740000
H       -2.02620000      -0.39270000       0.58790000
H       -1.76330000      -0.34510000      -1.16680000
