18
Properties=species:S:1:pos:R:3 gdb_32251=T pbc="F F F"
C       -0.02500000       1.38530000       0.10820000
O        0.02610000      -0.02750000       0.00070000
C        0.62820000      -0.56980000      -1.08450000
C        1.21060000       0.15920000      -2.11990000
C        1.79390000      -0.54360000      -3.17290000
N        1.83240000      -1.87120000      -3.25680000
C        1.26550000      -2.54590000      -2.24850000
C        0.65060000      -1.97500000      -1.14030000
C        0.03510000      -2.80300000      -0.04660000
H        0.98040000       1.82200000       0.14510000
H       -0.58020000       1.83190000      -0.72570000
H       -0.54530000       1.59820000       1.04300000
H        1.21980000       1.24120000      -2.12430000
H        2.25380000       0.00690000      -3.99100000
H        1.30070000      -3.63170000      -2.32380000
H        0.50090000      -2.59370000       0.92250000
H       -1.03210000      -2.58400000       0.06700000
H        0.14740000      -3.86910000      -0.25980000
