14
Properties=species:S:1:pos:R:3 gdb_33436=T pbc="F F F"
C       -0.08050000      -1.24740000      -0.09850000
C       -0.05260000      -0.04750000      -0.05060000
C       -0.01780000       1.40140000       0.00810000
C       -0.98810000       2.00860000      -0.90110000
N       -1.76790000       2.44530000      -1.63280000
C        0.13390000       2.14040000       1.39860000
C        1.57790000       1.60730000       1.52500000
C        1.36540000       2.16350000       0.09990000
O        0.65290000       3.31410000       0.67820000
H       -0.11040000      -2.30860000      -0.14570000
H       -0.64390000       2.29440000       2.14500000
H        2.22380000       2.22340000       2.14850000
H        1.73320000       0.53640000       1.65320000
H        2.06640000       2.34520000      -0.71320000
