21
Properties=species:S:1:pos:R:3 gdb_105062=T pbc="F F F"
C        1.25280000       0.76400000       0.58910000
O        0.14540000       0.45650000      -0.24220000
C        0.42630000      -0.41640000      -1.30370000
C       -0.34350000      -0.08780000      -2.54890000
C        1.14650000       0.16740000      -2.49430000
C        0.71530000      -1.83860000      -0.90370000
O        2.09050000      -1.98710000      -0.61430000
C       -0.29590000      -2.57390000      -0.07060000
C       -0.02660000      -3.00750000      -1.50110000
H        1.62710000      -0.11850000       1.11980000
H        2.08350000       1.19270000       0.01170000
H        0.90080000       1.50270000       1.31370000
H       -0.70720000      -0.89020000      -3.17900000
H       -0.99880000       0.77220000      -2.47630000
H        1.47550000       1.19700000      -2.41450000
H        1.80600000      -0.48340000      -3.05630000
H        2.21620000      -2.81430000      -0.13840000
H        0.06820000      -3.20780000       0.73300000
H       -1.22900000      -2.06850000       0.15100000
H       -0.79810000      -2.84100000      -2.24370000
H        0.54680000      -3.91720000      -1.65130000
