15
Properties=species:S:1:pos:R:3 gdb_25848=T pbc="F F F"
N       -0.08340000       1.31770000       0.00820000
C        0.05550000      -0.02920000       0.00220000
O        1.12460000      -0.61600000      -0.00850000
C       -1.25810000      -0.77720000       0.01010000
N       -2.38840000      -0.05880000       0.02100000
C       -3.54510000      -0.72180000       0.02790000
C       -3.62890000      -2.11270000       0.02440000
C       -2.44850000      -2.84990000       0.01310000
C       -1.23670000      -2.17020000       0.00580000
H        0.73850000       1.89590000       0.00200000
H       -1.00870000       1.71500000       0.01540000
H       -4.44750000      -0.11540000       0.03660000
H       -4.59770000      -2.59940000       0.03040000
H       -2.47330000      -3.93460000       0.01000000
H       -0.27860000      -2.67410000      -0.00320000
