18
Properties=species:S:1:pos:R:3 gdb_17845=T pbc="F F F"
C       -0.06570000       1.56390000      -0.14820000
C        1.48220000       1.59310000       0.01010000
C        1.40190000       0.15750000       0.58070000
C       -0.04250000       0.02180000       0.06240000
C        2.46860000      -0.96000000       0.54340000
C        3.27660000      -0.22650000       1.63970000
C        1.78050000      -0.24200000       2.03070000
O        1.71290000      -1.66300000       1.61260000
H       -0.57190000       2.08510000       0.66860000
H       -0.47090000       1.93000000      -1.09360000
H        1.99800000       1.62400000      -0.95500000
H        1.90760000       2.36940000       0.65140000
H       -0.77500000      -0.41040000       0.74650000
H       -0.09010000      -0.52720000      -0.88320000
H        2.81960000      -1.55790000      -0.29940000
H        3.91630000      -0.86880000       2.24590000
H        3.74030000       0.73110000       1.39130000
H        1.30340000       0.02670000       2.97470000
