19
Properties=species:S:1:pos:R:3 gdb_40317=T pbc="F F F"
C       -0.43870000       1.31980000       0.01520000
C        1.04130000       1.05940000       0.13880000
C        0.07670000      -0.09590000       0.09460000
C       -0.19680000      -0.90990000       1.32700000
C        0.90790000      -1.48510000       2.11310000
O        0.20580000      -0.32250000       2.56700000
C       -1.53550000      -1.59550000       1.35170000
C       -2.30590000      -1.75230000       2.58900000
O       -2.66710000      -0.76520000       1.61790000
H       -0.95420000       1.70450000       0.88720000
H       -0.83020000       1.66840000      -0.93370000
H        1.67350000       1.22730000      -0.72570000
H        1.50150000       1.28020000       1.09500000
H        0.04290000      -0.67770000      -0.82300000
H        0.74360000      -2.38370000       2.70570000
H        1.93260000      -1.31020000       1.79080000
H       -1.69050000      -2.31170000       0.54220000
H       -2.99900000      -2.58660000       2.68770000
H       -1.89310000      -1.35720000       3.51350000
