15
Properties=species:S:1:pos:R:3 gdb_29892=T pbc="F F F"
C       -0.00800000       1.41580000      -0.32300000
N       -0.00420000      -0.00320000       0.01940000
C       -1.13070000      -0.65540000       0.42080000
C       -1.15380000      -1.96580000       0.74210000
C        0.05950000      -2.74140000       0.66630000
O        0.22440000      -3.90120000       0.91070000
O        1.19270000      -2.00580000       0.24300000
C        1.21010000      -0.68350000      -0.07970000
N        2.25350000      -0.07050000      -0.45380000
H        0.68230000       1.96190000       0.32360000
H        0.31750000       1.55580000      -1.35610000
H       -1.02060000       1.80100000      -0.19620000
H       -2.02200000      -0.04030000       0.46560000
H       -2.05920000      -2.46100000       1.05800000
H        3.04650000      -0.70770000      -0.47200000
