13
Properties=species:S:1:pos:R:3 gdb_16265=T pbc="F F F"
O       -0.03070000       0.01340000       0.04480000
C       -0.01120000       1.20420000       0.10910000
C       -1.07340000       2.31590000       0.00990000
N        0.00800000       3.34370000      -0.19150000
C        0.77990000       3.31320000       1.03600000
C        1.08890000       2.24260000       0.02400000
C        2.32200000       2.13570000      -0.67000000
C        3.36580000       2.00270000      -1.25220000
H       -1.67690000       2.19990000      -0.89390000
H       -1.72240000       2.50580000       0.86930000
H        1.52410000       4.09960000       1.11390000
H        0.29500000       3.04000000       1.97180000
H        4.28390000       1.88770000      -1.77360000
