21
Properties=species:S:1:pos:R:3 gdb_106702=T pbc="F F F"
C        0.14010000       1.48520000       0.22360000
C       -0.11720000       0.00600000      -0.09650000
C        0.62030000      -0.47170000      -1.31800000
C        2.05630000      -0.95060000      -1.31740000
C        0.97550000      -1.92020000      -1.73970000
C        0.66460000      -3.21020000      -1.03580000
C        0.55310000      -1.57030000      -3.15410000
O       -0.81220000      -1.12160000      -3.13960000
C        0.21700000      -0.19420000      -2.75520000
H        1.20280000       1.66920000       0.41320000
H       -0.16480000       2.12840000      -0.60880000
H       -0.42100000       1.80000000       1.10890000
H        0.17160000      -0.60850000       0.76540000
H       -1.19120000      -0.15900000      -0.24710000
H        2.77220000      -0.56700000      -2.04020000
H        2.48480000      -1.13250000      -0.33470000
H        0.81330000      -3.12070000       0.04520000
H       -0.37550000      -3.50430000      -1.21050000
H        1.31010000      -4.02360000      -1.38810000
H        0.93700000      -1.94240000      -4.09750000
H        0.28640000       0.72470000      -3.32620000
