19
Properties=species:S:1:pos:R:3 gdb_94895=T pbc="F F F"
O       -0.06990000       1.47580000       0.04320000
C       -0.02160000       0.05330000      -0.01570000
C        0.63970000      -0.60650000       1.23900000
C       -0.25710000      -1.81590000       1.64530000
C       -1.52530000      -1.51860000       0.89960000
C       -1.40200000      -0.52390000       0.02760000
C       -2.67950000      -0.32110000      -0.72000000
O       -3.57410000      -1.29160000      -0.15330000
C       -2.90470000      -2.09290000       0.82800000
H        0.82110000       1.80890000      -0.10220000
H        0.49570000      -0.25240000      -0.94120000
H        1.68120000      -0.89270000       1.06780000
H        0.62590000       0.14900000       2.03030000
H        0.18030000      -2.77040000       1.32300000
H       -0.39310000      -1.89280000       2.73040000
H       -3.10180000       0.68550000      -0.59090000
H       -2.57640000      -0.49560000      -1.80330000
H       -2.91210000      -3.15100000       0.51820000
H       -3.44840000      -2.03350000       1.78370000
