17
Properties=species:S:1:pos:R:3 gdb_29296=T pbc="F F F"
O        0.44450000       1.34760000      -0.18730000
C        0.15600000       0.02010000      -0.05590000
C       -0.26250000      -0.78170000      -1.09130000
N       -0.44260000      -2.04930000      -0.57050000
C       -0.15700000      -2.06130000       0.77100000
C        0.22650000      -0.77870000       1.11810000
C       -0.22550000      -3.26410000       1.61800000
C       -1.00410000      -4.47330000       1.23780000
N        0.46520000      -4.52630000       1.24190000
H        0.72340000       1.68320000       0.66910000
H       -0.44070000      -0.55900000      -2.12910000
H       -0.80960000      -2.82370000      -1.09380000
H        0.53410000      -0.46060000       2.10360000
H       -0.13130000      -3.03770000       2.67630000
H       -1.48870000      -5.06960000       2.00620000
H       -1.53580000      -4.46940000       0.28850000
H        0.81930000      -4.43520000       0.29200000
