19
Properties=species:S:1:pos:R:3 gdb_108698=T pbc="F F F"
O       -0.17430000       1.47360000      -0.21200000
C       -0.18700000       0.06150000      -0.23520000
C       -1.43820000      -0.54200000       0.32220000
C       -2.57950000       0.15360000       0.55590000
C       -3.20930000       0.77560000      -0.71460000
C       -3.97110000      -0.59460000      -0.74950000
C       -3.27350000      -1.88790000      -0.15750000
C       -1.76280000      -2.01590000       0.10280000
C       -3.77430000      -0.80450000       0.72510000
H       -0.63300000       1.74030000       0.59430000
H       -0.06000000      -0.23730000      -1.28740000
H        0.68590000      -0.35910000       0.29910000
H       -3.93520000       1.58050000      -0.55290000
H       -2.52230000       1.05020000      -1.51800000
H       -4.89950000      -0.74770000      -1.29570000
H       -3.86840000      -2.78580000      -0.31570000
H       -1.17400000      -2.38660000      -0.74620000
H       -1.57610000      -2.70430000       0.93950000
H       -4.49360000      -0.83880000       1.53300000
