16
Properties=species:S:1:pos:R:3 gdb_37758=T pbc="F F F"
C       -0.05900000       1.70850000      -0.39510000
N        1.21110000       1.72300000       0.34960000
C        1.71150000       0.44960000       0.39780000
N        2.42780000      -0.16420000       1.27500000
C        2.30050000      -1.53760000       0.90420000
C        1.47710000      -1.77390000      -0.13730000
N       -1.34940000      -0.34830000      -1.12740000
C       -0.27930000       0.22520000      -0.78360000
C        1.08960000      -0.41920000      -0.66490000
H       -0.89020000       2.08230000       0.21350000
H       -0.00270000       2.32880000      -1.29950000
H        1.27480000       2.28270000       1.18720000
H        2.83860000      -2.27150000       1.49140000
H        1.25340000      -2.71980000      -0.60470000
H       -2.13890000       0.30380000      -1.12910000
H        1.59710000      -0.24210000      -1.62860000
