17
Properties=species:S:1:pos:R:3 gdb_124479=T pbc="F F F"
C       -0.17590000       1.54540000      -0.04200000
C        0.00770000       0.02570000       0.01220000
C        0.80960000      -0.39520000       1.25060000
O       -1.25320000      -0.63880000       0.13510000
C        0.69570000      -0.49140000      -1.23520000
N        1.51480000       0.20930000      -1.97170000
O        1.92140000      -0.62130000      -2.98150000
N        1.34080000      -1.85350000      -2.87340000
C        0.58920000      -1.79250000      -1.81130000
H        0.78680000       2.05520000      -0.12310000
H       -0.77410000       1.83430000      -0.91270000
H       -0.68670000       1.88160000       0.86400000
H        0.29100000      -0.05670000       2.15150000
H        0.90210000      -1.48360000       1.29470000
H        1.81100000       0.04140000       1.22680000
H       -1.84490000      -0.28340000      -0.53770000
H       -0.00060000      -2.63400000      -1.48590000
