19
Properties=species:S:1:pos:R:3 gdb_67162=T pbc="F F F"
C        0.01380000       1.53760000      -0.09220000
C        0.00250000       0.04250000       0.00240000
C        0.48110000      -1.04620000      -0.94830000
C        1.22790000      -1.75100000       0.18070000
C        0.47120000      -0.82860000       1.20910000
C       -0.76150000      -1.58820000       1.67580000
O       -1.00770000      -1.96550000       2.79140000
C       -1.64260000      -1.79810000       0.42650000
C       -1.00000000      -0.90380000      -0.61760000
H        1.01250000       1.94870000       0.09420000
H       -0.29840000       1.86330000      -1.09010000
H       -0.67180000       1.99110000       0.63370000
H        0.82670000      -0.94810000      -1.97150000
H        1.11410000      -2.83530000       0.29390000
H        2.29260000      -1.50810000       0.17240000
H        1.06100000      -0.39130000       2.01190000
H       -1.67660000      -2.86220000       0.16690000
H       -2.66890000      -1.49210000       0.65500000
H       -1.60980000      -0.51770000      -1.42730000
