18
Properties=species:S:1:pos:R:3 gdb_101523=T pbc="F F F"
C       -0.07680000       1.59550000      -0.00780000
C       -0.01650000       0.06180000      -0.04140000
C        0.75860000      -0.46990000      -1.24570000
O        2.12130000      -0.09560000      -1.07000000
N        0.61060000      -0.48910000       1.15530000
C       -0.05150000      -0.61810000       2.33490000
N       -1.30200000      -0.36490000       2.47150000
C        0.78470000      -1.09670000       3.42880000
N        1.41320000      -1.46950000       4.32500000
H        0.93040000       2.02000000      -0.00570000
H       -0.60990000       1.97380000      -0.88620000
H       -0.61010000       1.92770000       0.88520000
H       -1.03550000      -0.33460000      -0.08010000
H        0.65460000      -1.56300000      -1.29580000
H        0.33950000      -0.03920000      -2.16650000
H        2.64810000      -0.51280000      -1.75700000
H        1.61730000      -0.54170000       1.14410000
H       -1.61450000      -0.56720000       3.41710000
