21
Properties=species:S:1:pos:R:3 gdb_115951=T pbc="F F F"
C       -0.23320000       1.44810000       0.10510000
C       -0.15200000      -0.07850000       0.17010000
C        0.88360000      -0.56150000       1.18830000
O        0.58060000      -0.11470000       2.51930000
C       -0.05230000      -1.16460000       3.23740000
C        0.57150000      -2.47400000       2.72510000
C       -0.38480000      -3.45100000       2.01840000
O       -0.09610000      -2.86080000       0.73190000
C        1.00110000      -2.09590000       1.29250000
H        0.71880000       1.88400000      -0.21910000
H       -1.00540000       1.77260000      -0.59890000
H       -0.46940000       1.86100000       1.08960000
H       -1.12720000      -0.50570000       0.42340000
H        0.11110000      -0.49230000      -0.81140000
H        1.86090000      -0.12520000       0.94470000
H        0.12220000      -0.98580000       4.30190000
H       -1.14040000      -1.16270000       3.06570000
H        1.31810000      -2.89370000       3.39890000
H       -0.06900000      -4.50120000       2.05590000
H       -1.44800000      -3.38420000       2.27840000
H        1.96260000      -2.47410000       0.92910000
