16
Properties=species:S:1:pos:R:3 gdb_15215=T pbc="F F F"
C       -0.12600000       1.56920000       0.08780000
C        0.03190000       0.06850000      -0.01910000
C        0.66920000      -0.61890000      -1.21950000
C        1.23530000       0.15120000      -2.35360000
O        1.12350000      -0.19200000      -3.50600000
C        1.36860000      -0.61220000       0.15650000
C        2.56760000       0.14550000       0.37340000
C        3.57550000       0.76720000       0.58560000
H        0.78090000       2.10180000      -0.20490000
H       -0.95130000       1.92120000      -0.53920000
H       -0.34780000       1.84720000       1.12310000
H       -0.80360000      -0.49280000       0.39010000
H        0.23760000      -1.56550000      -1.52640000
H        1.78440000       1.07570000      -2.08090000
H        1.35580000      -1.57580000       0.65750000
H        4.46950000       1.31140000       0.76540000
