20
Properties=species:S:1:pos:R:3 gdb_117389=T pbc="F F F"
O       -0.51930000       0.87140000      -1.17250000
C       -0.19300000      -0.13190000      -0.22200000
C       -1.36880000      -1.09600000      -0.16820000
C       -1.18090000      -2.21880000       0.83590000
O       -0.18710000      -2.30500000       1.52230000
C       -2.29880000      -3.25910000       0.93500000
C       -2.33080000      -4.18010000      -0.27220000
C       -3.57900000      -4.88110000      -0.65810000
N       -3.03790000      -3.80330000      -1.50840000
H        0.22210000       1.48100000      -1.22810000
H        0.71830000      -0.67920000      -0.50180000
H       -0.01810000       0.29290000       0.77660000
H       -2.28750000      -0.54710000       0.08070000
H       -1.54610000      -1.52910000      -1.16110000
H       -2.11640000      -3.84020000       1.84420000
H       -3.27010000      -2.75680000       1.03230000
H       -1.38750000      -4.68820000      -0.46460000
H       -3.53570000      -5.87520000      -1.09310000
H       -4.47300000      -4.68180000      -0.07230000
H       -3.57480000      -2.95240000      -1.35550000
