17
Properties=species:S:1:pos:R:3 gdb_112223=T pbc="F F F"
C        0.23200000       1.56650000       0.01430000
C        0.08680000       0.04180000       0.02120000
C        0.46090000      -0.57850000      -1.30680000
O        1.88720000      -0.38240000      -1.62820000
C        2.14340000      -1.72280000      -1.64140000
O        3.17820000      -2.27440000      -1.81450000
C        0.66660000      -2.12100000      -1.38910000
C        0.37360000      -2.95210000      -0.24460000
C        0.13410000      -3.64180000       0.70980000
H        1.26130000       1.85610000      -0.21460000
H       -0.42160000       2.02560000      -0.73550000
H       -0.03130000       1.98560000       0.98920000
H        0.70890000      -0.40020000       0.80690000
H       -0.94770000      -0.24650000       0.24480000
H       -0.14060000      -0.17640000      -2.12720000
H        0.23600000      -2.54710000      -2.30110000
H       -0.07080000      -4.25690000       1.55120000
