11
Properties=species:S:1:pos:R:3 gdb_8789=T pbc="F F F"
C        0.78660000       1.27490000      -0.03780000
O        0.98140000      -0.06790000      -0.52090000
C       -0.03450000      -0.58880000      -1.20790000
O       -1.07940000      -0.06200000      -1.46190000
C        0.30470000      -2.02310000      -1.66380000
O       -0.47460000      -2.67640000      -2.29870000
C        1.62480000      -2.54660000      -1.28260000
N        2.65480000      -2.98940000      -0.99990000
H        0.61690000       1.95300000      -0.87700000
H       -0.07500000       1.30960000       0.63250000
H        1.70240000       1.53190000       0.49150000
