23
Properties=species:S:1:pos:R:3 gdb_92535=T pbc="F F F"
C       -0.68310000       1.38620000      -0.01540000
C       -0.00070000       0.01940000      -0.01780000
C        0.93710000      -0.23160000      -1.21920000
C        1.71010000      -1.50150000      -0.82840000
C        3.24380000      -1.41990000      -0.69760000
O        3.16580000      -1.31460000       0.73980000
C        1.72970000      -1.51390000       0.72260000
C        0.87370000      -0.32180000       1.22740000
C        1.72970000       0.84020000       1.74610000
H        0.04610000       2.20270000      -0.02410000
H       -1.31880000       1.50380000      -0.89950000
H       -1.31870000       1.51510000       0.86740000
H       -0.78840000      -0.74690000      -0.06400000
H        0.38790000      -0.33440000      -2.15970000
H        1.62220000       0.61690000      -1.34180000
H        1.32900000      -2.39650000      -1.32290000
H        3.78560000      -2.32380000      -1.00410000
H        3.72580000      -0.54440000      -1.15200000
H        1.46890000      -2.45640000       1.21820000
H        0.22480000      -0.65260000       2.04620000
H        2.34910000       1.28130000       0.96000000
H        1.09820000       1.62900000       2.16540000
H        2.40940000       0.49440000       2.52880000
