17
Properties=species:S:1:pos:R:3 gdb_11637=T pbc="F F F"
C       -0.15140000       1.58310000      -0.00220000
C        0.02300000       0.07460000       0.01250000
C        1.19230000      -0.64740000      -0.73770000
C        2.16600000      -0.15900000       0.37550000
C        0.88110000      -0.64800000       1.11730000
C        0.90710000      -1.88400000       0.16400000
C        0.63740000      -0.64620000       2.53800000
N        0.43220000      -0.63470000       3.67640000
H        0.78250000       2.13450000       0.12800000
H       -0.59210000       1.89760000      -0.95420000
H       -0.83530000       1.89380000       0.79450000
H       -0.94640000      -0.41330000      -0.13740000
H        1.37620000      -0.65240000      -1.81120000
H        3.06060000      -0.76380000       0.53850000
H        2.39610000       0.90430000       0.42830000
H       -0.04520000      -2.39860000       0.01750000
H        1.73160000      -2.58360000       0.31510000
