15
Properties=species:S:1:pos:R:3 gdb_98826=T pbc="F F F"
O        0.05450000       1.41690000      -0.01860000
C        0.01990000       0.03370000       0.15830000
C       -1.39800000      -0.50210000       0.04440000
O       -2.33200000       0.24570000      -0.12580000
C       -1.55590000      -2.01250000       0.09400000
O       -2.90680000      -2.47910000       0.10330000
C       -2.82170000      -3.10550000      -1.19500000
C       -1.34870000      -2.70140000      -1.28470000
O       -0.44310000      -2.83190000      -2.04300000
H       -0.87140000       1.68960000      -0.11570000
H        0.64290000      -0.48500000      -0.59030000
H        0.41720000      -0.25840000       1.14590000
H       -0.94380000      -2.44160000       0.89920000
H       -3.01380000      -4.18450000      -1.16580000
H       -3.47310000      -2.63130000      -1.93940000
