16
Properties=species:S:1:pos:R:3 gdb_83192=T pbc="F F F"
O        0.30420000       1.02850000       0.60070000
C        0.05620000      -0.25890000       0.14530000
C       -1.38290000      -0.72690000      -0.04580000
C       -2.48980000       0.28810000       0.07150000
O       -2.97640000       0.68020000      -1.23560000
C       -2.07180000       1.09270000      -2.14870000
N       -2.34110000       1.75960000      -3.18240000
O       -0.76550000       0.76690000      -1.90350000
C       -0.49830000      -0.44420000      -1.23460000
H        0.33460000       1.60690000      -0.17280000
H        0.76830000      -0.99410000       0.50910000
H       -1.62020000      -1.76090000       0.17550000
H       -3.36500000      -0.11800000       0.57770000
H       -2.14850000       1.17940000       0.60760000
H       -3.32960000       2.00540000      -3.18010000
H       -0.15090000      -1.23030000      -1.89720000
