21
Properties=species:S:1:pos:R:3 gdb_68217=T pbc="F F F"
C        0.02660000       1.50030000       0.08400000
C        0.00770000       0.00270000      -0.02930000
C        0.89690000      -0.81040000      -1.00790000
C        0.69020000      -1.82760000       0.13210000
O        0.67300000      -0.70960000       1.07480000
C       -0.79270000      -2.17340000       0.02900000
C       -1.31290000      -3.37840000      -0.69950000
C       -1.43010000      -3.28190000       0.80790000
C       -1.35390000      -0.74210000      -0.09120000
H        1.05180000       1.87170000       0.16520000
H       -0.44040000       1.95520000      -0.79570000
H       -0.52910000       1.82490000       0.97000000
H        0.52000000      -1.04540000      -2.00700000
H        1.91690000      -0.42460000      -1.03890000
H        1.39950000      -2.61800000       0.38020000
H       -2.21630000      -3.27120000      -1.29160000
H       -0.59690000      -4.08380000      -1.11120000
H       -0.79370000      -3.92080000       1.41260000
H       -2.41380000      -3.10770000       1.23230000
H       -1.99040000      -0.46160000       0.75270000
H       -1.89720000      -0.55670000      -1.02310000
