12
Properties=species:S:1:pos:R:3 gdb_4626=T pbc="F F F"
N       -0.01360000       1.28970000       0.00750000
C        0.00270000       0.02530000       0.00080000
N       -1.10350000      -0.80700000       0.00290000
C       -0.70290000      -2.12720000      -0.00650000
C        0.64530000      -2.13600000      -0.01440000
O        1.09860000      -0.81110000      -0.00990000
C        1.58120000      -3.17590000      -0.02530000
C        2.39340000      -4.06610000      -0.03470000
H        0.93050000       1.66560000       0.00390000
H       -2.04290000      -0.45280000       0.00970000
H       -1.39590000      -2.95030000      -0.00680000
H        3.10690000      -4.85250000      -0.04300000
