17
Properties=species:S:1:pos:R:3 gdb_36226=T pbc="F F F"
N       -0.10590000      -1.04920000       0.57830000
C       -0.05320000       0.05550000       0.24440000
C        0.02630000       1.46080000      -0.16800000
C        1.43600000       1.99240000      -0.14370000
C        2.10230000       2.55820000      -1.15110000
C        3.49460000       2.95170000      -0.71340000
N        3.58340000       2.60340000       0.72420000
C        2.66310000       3.34640000       1.58870000
C        2.28350000       1.99320000       1.08740000
H       -0.40050000       1.55550000      -1.17140000
H       -0.61530000       2.04100000       0.50900000
H        1.71550000       2.73570000      -2.14840000
H        4.26400000       2.39610000      -1.26570000
H        3.70650000       4.01820000      -0.86130000
H        3.01380000       3.47390000       2.60920000
H        2.12490000       4.19700000       1.17390000
H        2.29010000       1.12660000       1.74320000
