17
Properties=species:S:1:pos:R:3 gdb_54463=T pbc="F F F"
N        0.13830000       0.88820000      -0.80130000
C       -0.04360000       0.03460000       0.23940000
O        0.74150000      -0.10960000       1.16190000
C       -1.31660000      -0.73560000       0.15330000
C       -1.92240000      -1.39640000       1.36220000
C       -1.50210000      -2.24860000       0.20840000
C       -2.40880000      -2.09020000      -1.02470000
C       -3.52390000      -1.13100000      -0.87470000
N       -2.16360000      -0.60660000      -1.10460000
H        0.99220000       1.41690000      -0.85380000
H       -0.51940000       0.88640000      -1.56450000
H       -1.21400000      -1.40130000       2.18400000
H       -2.95640000      -1.26180000       1.65720000
H       -0.72340000      -2.99550000       0.27900000
H       -2.29480000      -2.71110000      -1.90720000
H       -4.15920000      -0.98920000      -1.74450000
H       -4.02920000      -0.96660000       0.06930000
