17
Properties=species:S:1:pos:R:3 gdb_73605=T pbc="F F F"
N       -0.03130000       1.47450000       0.23560000
C       -0.03730000       0.07160000      -0.05530000
C        0.80990000      -0.54830000      -1.16960000
C        0.02950000      -1.81590000      -1.58290000
O       -1.30810000      -1.67980000      -1.05860000
C       -1.31230000      -0.70660000      -0.07590000
C       -0.37420000      -0.83850000       1.13810000
C        0.36030000      -2.03080000       1.43040000
N        0.96400000      -2.99030000       1.66640000
H        0.88040000       1.76880000       0.57440000
H       -0.22760000       2.01400000      -0.60310000
H        0.86470000       0.17520000      -1.98980000
H        1.83170000      -0.78580000      -0.85990000
H       -0.05410000      -1.93420000      -2.66630000
H        0.48590000      -2.71780000      -1.16660000
H       -2.28650000      -0.26370000       0.09270000
H       -0.70620000      -0.28610000       2.01080000
