20
Properties=species:S:1:pos:R:3 gdb_117271=T pbc="F F F"
O       -0.15750000       1.43870000       0.13370000
C        0.00030000       0.02580000       0.12830000
C       -1.38780000      -0.57970000      -0.01950000
C       -1.34320000      -2.10190000      -0.03790000
O       -0.30780000      -2.74480000       0.05660000
N       -2.54650000      -2.71190000      -0.16830000
C       -3.93320000      -2.26040000      -0.29970000
C       -4.36060000      -3.75610000      -0.36440000
C       -2.85730000      -4.13890000      -0.22000000
H        0.71450000       1.83260000       0.22630000
H        0.63800000      -0.31080000      -0.70050000
H        0.46250000      -0.33720000       1.05640000
H       -2.02840000      -0.23490000       0.80200000
H       -1.85450000      -0.20860000      -0.94060000
H       -4.30860000      -1.70110000       0.56550000
H       -4.13230000      -1.67480000      -1.20510000
H       -4.99540000      -4.08140000       0.46000000
H       -4.81900000      -4.05530000      -1.30710000
H       -2.41080000      -4.65520000      -1.07600000
H       -2.58710000      -4.68070000       0.69220000
