17
Properties=species:S:1:pos:R:3 gdb_49149=T pbc="F F F"
O       -0.08860000       0.01150000       0.12570000
C       -0.00450000       1.21600000       0.02710000
C        1.26520000       1.94780000       0.00800000
C        1.37570000       3.27850000      -0.12410000
C        2.79670000       3.69900000      -0.12340000
C        3.29870000       4.82800000      -0.93030000
O        3.14000000       4.95390000       0.48030000
C        3.61100000       2.45280000       0.24330000
C        2.61480000       1.27020000       0.11290000
H       -0.91270000       1.85380000      -0.05360000
H        0.55620000       3.98110000      -0.22890000
H        4.32720000       4.79730000      -1.28910000
H        2.61240000       5.41890000      -1.53660000
H        4.49810000       2.33280000      -0.38220000
H        3.95170000       2.56340000       1.27720000
H        2.65370000       0.57590000       0.95680000
H        2.80620000       0.66960000      -0.78370000
