15
Properties=species:S:1:pos:R:3 gdb_54899=T pbc="F F F"
N        0.15600000       1.36370000       0.17830000
C       -0.01740000      -0.00100000       0.00700000
N        1.15210000      -0.70890000      -0.16170000
H        1.92290000      -0.40050000       0.41540000
H        1.02050000      -1.71100000      -0.15600000
C       -1.23240000      -0.62140000       0.00980000
O       -1.26890000      -2.00420000       0.03600000
C       -2.61480000      -2.41610000       0.02800000
O       -2.90490000      -3.58240000       0.04410000
C       -3.41060000      -1.19380000      -0.00500000
C       -2.56630000      -0.12960000      -0.02120000
H        0.81230000       1.77680000      -0.47310000
H       -0.69900000       1.89590000       0.24070000
H       -4.48880000      -1.19920000      -0.02000000
H       -2.84340000       0.91550000      -0.06130000
