17
Properties=species:S:1:pos:R:3 gdb_55325=T pbc="F F F"
C       -0.05670000       1.48540000       0.11980000
C        0.01330000      -0.02930000       0.16980000
O        0.96930000      -0.65690000       0.58160000
N       -1.09870000      -0.67850000      -0.30180000
C       -2.50690000      -0.28510000      -0.45770000
C       -2.89290000      -1.78800000      -0.37250000
C       -1.38010000      -2.10240000      -0.11170000
C       -0.73890000      -3.00410000      -1.07090000
N       -0.27500000      -3.73180000      -1.83900000
H        0.93070000       1.88600000       0.34660000
H       -0.38370000       1.83890000      -0.86260000
H       -0.77040000       1.86110000       0.86170000
H       -2.88870000       0.33240000       0.36280000
H       -2.73180000       0.20860000      -1.40820000
H       -3.55150000      -2.05750000       0.45190000
H       -3.27410000      -2.21080000      -1.30060000
H       -1.14920000      -2.44860000       0.90180000
