14
Properties=species:S:1:pos:R:3 gdb_21203=T pbc="F F F"
C       -0.04240000       1.43870000       0.05120000
N        0.00440000      -0.01880000       0.10940000
C       -1.19660000      -0.68530000       0.04020000
N       -2.37110000      -0.12760000       0.06500000
N       -3.24460000      -1.21180000       0.06650000
C       -2.63020000      -2.43640000       0.03160000
O       -3.09630000      -3.55490000       0.03160000
N       -1.27330000      -2.05860000      -0.00790000
H        0.97280000       1.82340000       0.16660000
H       -0.47380000       1.81830000      -0.88430000
H       -0.65620000       1.80680000       0.87580000
H        0.72450000      -0.42880000      -0.46940000
H       -4.23510000      -1.05770000       0.11140000
H       -0.52150000      -2.71940000       0.08160000
