17
Properties=species:S:1:pos:R:3 gdb_49594=T pbc="F F F"
O       -0.06470000      -0.02450000       0.06480000
C        0.00370000       1.17800000       0.08350000
C        1.30100000       1.96210000       0.01270000
C        1.39610000       2.86820000      -1.22850000
C        0.44420000       4.02220000      -1.43580000
C        1.78330000       4.27140000      -0.78770000
C        1.79750000       4.25480000       0.72270000
O        0.53090000       3.94460000       1.32550000
C        1.50090000       2.89550000       1.20920000
H       -0.90870000       1.80830000       0.14880000
H        2.11900000       1.23440000      -0.00310000
H        1.83400000       2.42420000      -2.11480000
H        0.31670000       4.35740000      -2.45920000
H       -0.43200000       4.11940000      -0.80850000
H        2.54620000       4.84480000      -1.29950000
H        2.41110000       4.96020000       1.27510000
H        1.85700000       2.48880000       2.15280000
