20
Properties=species:S:1:pos:R:3 gdb_86803=T pbc="F F F"
C        0.33290000       0.19320000       0.95410000
C       -0.18840000       0.35840000      -0.45940000
O        0.22950000       1.20690000      -1.21150000
C       -1.31900000      -0.57870000      -0.89950000
N       -1.22790000      -1.90980000      -0.34490000
C       -0.26920000      -2.87410000      -0.93390000
C       -1.30030000      -3.99990000      -0.65800000
O       -1.09900000      -4.72490000       0.53010000
C       -2.34450000      -2.85520000      -0.56970000
H        0.99030000       1.02820000       1.19940000
H       -0.49310000       0.12880000       1.66940000
H        0.88780000      -0.74700000       1.03950000
H       -2.25140000      -0.12170000      -0.53610000
H       -1.35770000      -0.55930000      -2.00290000
H       -0.09800000      -2.71360000      -2.01050000
H        0.69690000      -2.95270000      -0.42300000
H       -1.44530000      -4.73750000      -1.44730000
H       -0.97390000      -4.08740000       1.24250000
H       -3.07980000      -2.91240000       0.24050000
H       -2.86780000      -2.69420000      -1.52580000
