14
Properties=species:S:1:pos:R:3 gdb_22645=T pbc="F F F"
O       -0.04120000       1.31990000      -0.00900000
N        0.05840000      -0.07900000      -0.02950000
C       -1.10150000      -0.62120000       0.02000000
C       -1.27270000      -2.13500000       0.00420000
N       -2.72500000      -2.30550000      -0.18040000
C       -3.31980000      -1.05850000      -0.00110000
C       -2.42830000      -0.03850000       0.07390000
C       -4.73880000      -0.95400000       0.04170000
N       -5.89330000      -0.88830000       0.09470000
H        0.88130000       1.59130000      -0.06100000
H       -0.71280000      -2.60940000      -0.80610000
H       -0.94250000      -2.57780000       0.95260000
H       -3.16260000      -3.09200000       0.27760000
H       -2.65530000       1.01310000       0.10580000
