15
Properties=species:S:1:pos:R:3 gdb_13036=T pbc="F F F"
O        0.00790000      -0.01750000      -0.05020000
C       -0.05820000       1.17100000       0.03280000
C       -1.18490000       2.20950000       0.15150000
N       -0.14680000       3.20650000       0.52330000
C        0.97420000       2.31050000       0.13730000
C        2.10260000       2.15650000       1.16480000
C        2.96270000       3.33090000       1.22650000
C        3.65390000       4.31400000       1.24790000
H       -1.68950000       2.37480000      -0.81130000
H       -1.94410000       2.02520000       0.91910000
H       -0.18710000       4.07480000       0.00460000
H        1.40580000       2.52570000      -0.85180000
H        1.65690000       1.96530000       2.14760000
H        2.68990000       1.26840000       0.89890000
H        4.27500000       5.17430000       1.28360000
