21
Properties=species:S:1:pos:R:3 gdb_38717=T pbc="F F F"
C       -0.02990000       1.49390000      -0.10470000
C        1.35660000       0.86650000      -0.00510000
C        2.14760000       0.24840000      -1.16190000
C        1.38090000      -1.08650000      -1.35460000
C        1.65110000      -2.20600000      -0.32410000
C        1.25090000      -1.84350000       1.13410000
C       -0.02540000      -0.95790000       1.23100000
C        0.10700000       0.02000000       0.09380000
O        0.02420000      -0.67080000      -1.14640000
H       -0.32070000       2.12740000       0.72810000
H       -0.41600000       1.80200000      -1.07070000
H        1.89900000       1.09200000       0.90660000
H        2.11350000       0.83570000      -2.08560000
H        3.19920000       0.11050000      -0.89280000
H        1.46430000      -1.48380000      -2.37140000
H        1.05450000      -3.06460000      -0.65360000
H        2.70080000      -2.52210000      -0.35300000
H        1.13150000      -2.76470000       1.71460000
H        2.07320000      -1.29070000       1.60240000
H       -0.93870000      -1.55160000       1.11520000
H       -0.06940000      -0.46330000       2.20690000
