15
Properties=species:S:1:pos:R:3 gdb_1323=T pbc="F F F"
C       -0.08230000       1.53710000      -0.02070000
C       -0.02320000       0.02560000       0.02290000
C       -1.23600000      -0.68920000      -0.53760000
N        1.30570000      -0.54540000      -0.22370000
C        0.72170000      -0.66490000       1.13220000
C        1.37850000       0.06060000       2.19220000
N        1.87480000       0.64000000       3.06100000
H        0.82910000       1.97760000       0.38690000
H       -0.19430000       1.87710000      -1.05570000
H       -0.93740000       1.90810000       0.55360000
H       -1.36000000      -0.44900000      -1.59940000
H       -1.14410000      -1.77610000      -0.44330000
H       -2.14930000      -0.38020000      -0.01910000
H        1.23560000      -1.44640000      -0.69210000
H        0.34210000      -1.63430000       1.44460000
