15
Properties=species:S:1:pos:R:3 gdb_12044=T pbc="F F F"
O       -0.10620000       1.41720000      -0.08430000
C       -0.03850000       0.01320000       0.01410000
C        0.23880000      -0.62800000       1.43440000
C       -1.13820000      -1.29390000       1.36950000
C       -2.19810000      -0.24630000       1.21540000
C       -1.41310000      -0.66100000       0.00140000
C        0.86550000      -0.53350000      -1.01000000
N        1.60050000      -0.93710000      -1.80590000
H        0.78910000       1.77420000      -0.05690000
H        1.07810000      -1.32440000       1.41860000
H        0.38420000       0.10740000       2.23140000
H       -1.35440000      -2.30370000       1.69100000
H       -3.22130000      -0.60660000       1.22330000
H       -2.06390000       0.74430000       1.63900000
H       -1.87570000      -1.07850000      -0.88290000
