17
Properties=species:S:1:pos:R:3 gdb_52269=T pbc="F F F"
N       -0.26440000       1.09640000      -0.51810000
C       -0.13330000      -0.10090000      -0.16140000
O        0.98500000      -0.85090000       0.11100000
C        0.16260000      -1.98670000       0.54290000
C       -1.11830000      -1.19550000       0.19880000
C       -2.09540000      -0.82600000       1.31580000
N       -2.94610000       0.26830000       0.88860000
C       -4.30280000       0.19400000       0.91150000
O       -4.94710000      -0.74410000       1.33380000
H        0.63460000       1.56760000      -0.62750000
H        0.37050000      -2.87210000      -0.06040000
H        0.32560000      -2.19680000       1.60310000
H       -1.65940000      -1.58140000      -0.66830000
H       -2.75060000      -1.66210000       1.56960000
H       -1.53420000      -0.54830000       2.21830000
H       -2.49270000       1.06550000       0.46160000
H       -4.76860000       1.10910000       0.49670000
