22
Properties=species:S:1:pos:R:3 gdb_102293=T pbc="F F F"
C       -0.09640000       1.57830000       0.96030000
C       -0.14730000       0.61550000      -0.22850000
C        1.04950000      -0.35190000      -0.20920000
N       -1.45980000      -0.04300000      -0.22890000
C       -1.81040000      -0.82240000      -1.40370000
C       -3.08950000      -1.63850000      -1.10730000
N       -2.82970000      -2.54960000       0.00790000
C       -2.04410000       0.05950000      -2.56080000
N       -2.22730000       0.73130000      -3.48290000
H        0.84140000       2.14190000       0.96830000
H       -0.93140000       2.28170000       0.91940000
H       -0.16190000       1.02850000       1.90740000
H       -0.09770000       1.20930000      -1.15050000
H        1.04390000      -0.95590000       0.70610000
H        1.04340000      -1.03440000      -1.06500000
H        1.99510000       0.19910000      -0.24070000
H       -1.55520000      -0.66640000       0.56940000
H       -1.02670000      -1.53910000      -1.71740000
H       -3.87070000      -0.93540000      -0.80510000
H       -3.41840000      -2.13170000      -2.03290000
H       -3.70230000      -2.85980000       0.42000000
H       -2.34700000      -3.38220000      -0.31570000
