18
Properties=species:S:1:pos:R:3 gdb_99047=T pbc="F F F"
C       -0.09010000       1.58940000      -0.05270000
C       -0.02370000       0.06190000       0.00750000
O       -1.37150000      -0.48100000       0.08250000
C       -1.87720000      -0.66670000       1.31870000
O       -1.29570000      -0.40760000       2.34320000
C       -3.28640000      -1.25000000       1.24060000
N       -3.92750000      -1.49250000       2.51940000
C        0.61650000      -0.52240000      -1.16440000
C        1.17160000      -0.97430000      -2.12870000
H        0.91840000       2.00150000      -0.14140000
H       -0.67660000       1.91040000      -0.91680000
H       -0.54730000       1.97210000       0.86280000
H        0.50160000      -0.24400000       0.91720000
H       -3.89710000      -0.56790000       0.63750000
H       -3.23130000      -2.18120000       0.66500000
H       -3.34690000      -2.12060000       3.06840000
H       -3.94610000      -0.62660000       3.05120000
H        1.66120000      -1.38370000      -2.97770000
