16
Properties=species:S:1:pos:R:3 gdb_2092=T pbc="F F F"
C        0.02100000       1.53790000       0.06610000
C        0.00300000       0.02320000      -0.04420000
C        0.73270000      -0.53040000      -1.26510000
C        0.76350000      -2.05990000      -1.18320000
N        1.16050000      -2.55510000       0.13270000
C        1.07170000      -1.76360000       1.11420000
O        0.60900000      -0.49040000       1.16300000
H        1.04980000       1.91040000       0.07570000
H       -0.50310000       1.98420000      -0.78440000
H       -0.47130000       1.86220000       0.98690000
H       -1.03700000      -0.33420000      -0.05480000
H        0.23950000      -0.18920000      -2.18140000
H        1.75600000      -0.13550000      -1.27520000
H       -0.22180000      -2.47840000      -1.42990000
H        1.45950000      -2.47130000      -1.92240000
H        1.39910000      -2.07080000       2.10630000
