21
Properties=species:S:1:pos:R:3 gdb_53568=T pbc="F F F"
C       -0.01980000       1.29620000      -0.39360000
C       -0.02520000      -0.12630000      -0.08190000
C       -0.01970000      -1.30240000       0.17680000
C       -0.04470000      -2.72970000       0.48790000
C       -1.40200000      -3.36930000       0.21110000
C       -1.88870000      -3.83250000      -1.13260000
C       -0.76560000      -4.46960000      -1.96150000
C       -0.51430000      -5.49610000      -0.80960000
C       -1.63860000      -4.84050000       0.00450000
H        0.75920000       1.54280000      -1.12390000
H       -0.97920000       1.61610000      -0.81550000
H        0.16430000       1.90150000       0.50130000
H        0.74270000      -3.23940000      -0.07850000
H        0.20840000      -2.87960000       1.54640000
H       -2.19850000      -2.90450000       0.78840000
H       -2.83140000      -3.48310000      -1.53730000
H       -1.13660000      -4.95620000      -2.86590000
H        0.06460000      -3.81360000      -2.24300000
H       -0.76100000      -6.51580000      -1.11290000
H        0.48110000      -5.50890000      -0.35310000
H       -2.35920000      -5.38210000       0.60680000
