15
Properties=species:S:1:pos:R:3 gdb_36263=T pbc="F F F"
N       -0.01500000      -1.23180000       0.00840000
C       -0.03470000      -0.07930000      -0.06400000
C       -0.06600000       1.38500000      -0.12930000
N        1.28860000       1.93600000      -0.03860000
C        1.87720000       1.96810000       1.33630000
C        2.70640000       3.23820000       0.99330000
O        2.30220000       3.97810000       2.17680000
C        1.09840000       3.25380000       1.81080000
C        1.34380000       3.39950000       0.26060000
H       -0.49760000       1.68080000      -1.09250000
H       -0.75310000       1.74370000       0.65710000
H        2.16670000       1.07700000       1.89200000
H        3.72160000       3.33290000       0.61490000
H        0.21270000       3.38930000       2.43030000
H        1.01520000       4.17460000      -0.43220000
