21
Properties=species:S:1:pos:R:3 gdb_52411=T pbc="F F F"
O       -0.25540000       0.03520000      -0.40100000
C        0.09110000       1.14180000      -0.07970000
C        1.44060000       1.75290000      -0.38210000
C        1.30640000       3.10820000      -1.09430000
C        2.65410000       3.78610000      -1.30290000
O        2.42950000       5.02380000      -1.95180000
C        3.60160000       5.72930000      -2.21590000
C        4.39500000       5.40130000      -3.45610000
C        3.56500000       6.66860000      -3.37520000
H       -0.59650000       1.81580000       0.48500000
H        1.95460000       1.89910000       0.58010000
H        2.02310000       1.03690000      -0.96940000
H        0.82390000       2.97470000      -2.06900000
H        0.66270000       3.77900000      -0.51260000
H        3.15470000       3.94690000      -0.33260000
H        3.31920000       3.15040000      -1.90850000
H        4.15410000       6.02820000      -1.32360000
H        5.47620000       5.47730000      -3.42280000
H        4.01180000       4.60550000      -4.08510000
H        2.64390000       6.69160000      -3.94610000
H        4.06990000       7.62350000      -3.28440000
