14
Properties=species:S:1:pos:R:3 gdb_49902=T pbc="F F F"
N        0.02020000       1.11370000       0.71550000
C        0.08980000      -0.07610000       0.33460000
C       -0.97850000      -1.14660000       0.02260000
C        0.22210000      -2.11000000      -0.28830000
N        1.12130000      -0.98050000       0.00030000
C        2.48300000      -0.82210000      -0.02300000
O        3.03780000       0.21410000       0.26010000
C       -1.85530000      -1.53910000       1.11080000
N       -2.54560000      -1.87380000       1.97460000
H        0.95000000       1.52640000       0.80660000
H       -1.56790000      -0.89360000      -0.86170000
H        0.32130000      -2.94510000       0.40780000
H        0.26420000      -2.46480000      -1.32020000
H        3.01200000      -1.74440000      -0.32930000
