14
Properties=species:S:1:pos:R:3 gdb_132553=T pbc="F F F"
C       -0.07320000       1.52630000       0.04220000
C       -0.01490000       0.02660000      -0.01240000
C       -0.05360000      -0.71900000      -1.18730000
N       -0.00210000      -2.05220000      -1.24030000
C        0.09200000      -2.65920000      -0.06520000
O        0.14510000      -3.99660000      -0.09280000
N        0.13930000      -2.07700000       1.14050000
C        0.08510000      -0.76680000       1.13110000
F        0.13040000      -0.17080000       2.31550000
H        0.81860000       1.94560000       0.51960000
H       -0.14690000       1.94420000      -0.96500000
H       -0.93730000       1.87380000       0.61810000
H       -0.13090000      -0.20610000      -2.14440000
H        0.21130000      -4.29090000       0.82560000
