16
Properties=species:S:1:pos:R:3 gdb_48478=T pbc="F F F"
O       -0.14550000      -0.04960000      -0.53700000
C        0.13230000       0.82980000       0.23550000
C        1.26470000       1.84590000      -0.00430000
N        1.34350000       2.84880000       1.04900000
C        2.69840000       2.83340000       1.64190000
C        3.38710000       1.68260000       0.96050000
C        2.60340000       1.12330000       0.04490000
C        1.05080000       2.46400000      -1.39370000
O        1.02860000       3.65230000      -1.58020000
H       -0.39440000       0.98960000       1.20070000
H        1.13320000       3.75600000       0.64630000
H        3.23320000       3.78040000       1.48020000
H        2.65170000       2.68500000       2.73050000
H        4.39010000       1.36180000       1.21430000
H        2.81330000       0.26660000      -0.58110000
H        0.90620000       1.72950000      -2.20920000
