13
Properties=species:S:1:pos:R:3 gdb_131659=T pbc="F F F"
O        0.36570000       1.04240000       0.72660000
C        0.24460000       0.06230000      -0.25560000
C       -1.21000000      -0.38310000      -0.40110000
C       -1.47280000      -1.41180000      -1.40420000
C       -2.70790000      -1.85350000      -1.60080000
O       -3.78200000      -2.23360000      -1.77060000
N       -4.67950000      -1.18680000       1.43290000
N       -4.96030000      -0.45950000       2.20700000
O       -2.06280000       0.12770000       0.30640000
H       -0.53760000       1.17810000       1.05790000
H        0.59270000       0.42750000      -1.23660000
H        0.85420000      -0.82580000      -0.01790000
H       -0.68230000      -1.83680000      -2.01000000
