22
Properties=species:S:1:pos:R:3 gdb_110835=T pbc="F F F"
C       -0.24130000       1.52410000       0.26620000
C        0.20640000       0.13980000      -0.19610000
N        0.77920000      -0.59410000       0.93250000
C        0.00500000      -1.34670000       1.88700000
C       -1.15440000      -2.13110000       1.24540000
C       -0.09750000      -2.88870000       0.35990000
C        0.05950000      -4.35510000       0.75240000
O       -0.19220000      -2.75340000      -1.04830000
C        1.01430000      -2.01390000       0.97300000
H        0.58870000       2.06600000       0.72870000
H       -0.61480000       2.11070000      -0.57890000
H       -1.04660000       1.44980000       1.00530000
H       -0.61990000      -0.38690000      -0.68650000
H        1.00100000       0.22950000      -0.94510000
H        0.09580000      -1.10860000       2.94130000
H       -1.66980000      -2.79250000       1.94600000
H       -1.89680000      -1.53850000       0.70410000
H       -0.82900000      -4.93110000       0.46490000
H        0.92870000      -4.78840000       0.24730000
H        0.19380000      -4.46810000       1.83220000
H       -0.86060000      -3.37130000      -1.36450000
H        2.02060000      -2.36870000       1.17730000
