16
Properties=species:S:1:pos:R:3 gdb_68732=T pbc="F F F"
N        1.17780000       1.24530000       0.45540000
C        0.38470000       0.33030000      -0.23910000
C       -0.83890000      -0.11540000       0.51290000
C       -1.70440000      -1.04870000      -0.30940000
C       -2.88450000      -1.53900000       0.37630000
N       -3.80580000      -1.89670000       0.97700000
N       -1.52120000      -1.43670000      -1.50500000
C       -0.35230000      -0.97170000      -2.23060000
C        0.60260000      -0.08060000      -1.49140000
H        1.25190000       1.06890000       1.44880000
H        2.09020000       1.39920000       0.04700000
H       -0.56120000      -0.62140000       1.45050000
H       -1.43660000       0.75310000       0.82410000
H        0.15570000      -1.87430000      -2.60320000
H       -0.73270000      -0.48400000      -3.14200000
H        1.48910000       0.24330000      -2.03070000
