16
Properties=species:S:1:pos:R:3 gdb_45683=T pbc="F F F"
N       -0.05260000       1.05040000      -0.76870000
C        0.01520000       0.02460000      -0.03440000
C       -1.24660000      -0.69990000       0.42690000
N       -1.12070000      -2.17070000       0.43380000
C        0.00520000      -2.48330000       0.90940000
N        0.76730000      -3.64090000       1.00130000
C        2.03240000      -2.85100000       0.93130000
C        1.17230000      -1.59110000       1.25350000
O        1.23250000      -0.48120000       0.37640000
H        0.88240000       1.41810000      -0.95720000
H       -1.51490000      -0.33170000       1.42850000
H       -2.04800000      -0.40030000      -0.24740000
H        0.58380000      -4.45280000       0.42510000
H        2.78590000      -3.14490000       1.66460000
H        2.46670000      -2.79340000      -0.07120000
H        1.25050000      -1.26510000       2.29510000
