17
Properties=species:S:1:pos:R:3 gdb_128795=T pbc="F F F"
C        0.06550000       1.36670000       0.92020000
O       -0.00520000      -0.03460000       1.06960000
C        0.93150000      -0.71950000       0.24660000
C        0.82650000      -2.17940000       0.51940000
C        0.73110000      -3.23330000      -0.32680000
O        0.70810000      -4.39160000       0.34010000
N        0.76550000      -4.12060000       1.71920000
C        0.84610000      -2.81140000       1.80790000
N        0.97910000      -2.15050000       3.01210000
H       -0.16360000       1.67410000      -0.11150000
H       -0.67630000       1.80410000       1.59210000
H        1.06160000       1.75540000       1.18260000
H        0.73860000      -0.50760000      -0.81690000
H        1.94730000      -0.35110000       0.47150000
H        0.68140000      -3.30590000      -1.40320000
H        0.74070000      -2.71820000       3.81370000
H        0.51460000      -1.25200000       3.00750000
