21
Properties=species:S:1:pos:R:3 gdb_119655=T pbc="F F F"
C       -0.13790000       1.52270000      -0.00670000
C        0.00180000      -0.00090000       0.01780000
C        0.71710000      -0.55320000      -1.22350000
C        0.78230000      -2.04860000      -1.24080000
O       -0.47560000      -2.80870000      -1.24230000
C        0.56730000      -3.82330000      -1.25900000
C        1.51250000      -3.03660000      -2.21550000
C        2.71710000      -3.19520000      -1.26310000
C        1.52300000      -3.06140000      -0.29390000
H        0.84150000       2.01260000      -0.05250000
H       -0.71290000       1.85300000      -0.87890000
H       -0.65110000       1.88860000       0.88790000
H        0.55180000      -0.30880000       0.91590000
H       -0.98600000      -0.46910000       0.08860000
H        0.19830000      -0.21970000      -2.13190000
H        1.74010000      -0.15820000      -1.28350000
H        0.27660000      -4.87330000      -1.27020000
H        1.47200000      -3.02100000      -3.30500000
H        3.22590000      -4.16300000      -1.27860000
H        3.44930000      -2.38290000      -1.25660000
H        1.49550000      -3.07730000       0.79580000
