20
Properties=species:S:1:pos:R:3 gdb_9252=T pbc="F F F"
C        0.05720000       1.49380000       0.01840000
C        0.03540000       0.03780000      -0.01250000
C        0.02720000      -1.16620000      -0.03840000
C       -0.00380000      -2.62470000      -0.06050000
C       -1.43310000      -3.21700000      -0.03900000
C       -2.24260000      -2.81100000      -1.27400000
C       -1.35350000      -4.73710000       0.10280000
O       -2.67190000      -5.24350000       0.24680000
H        0.91440000       1.86780000       0.58950000
H        0.12440000       1.91480000      -0.99100000
H       -0.84920000       1.89670000       0.48390000
H        0.52100000      -2.98920000      -0.95550000
H        0.56090000      -3.01120000       0.79900000
H       -1.94180000      -2.83580000       0.85530000
H       -1.75630000      -3.16880000      -2.19050000
H       -3.24400000      -3.24410000      -1.23260000
H       -2.32810000      -1.72350000      -1.34260000
H       -0.85830000      -5.16310000      -0.78680000
H       -0.73480000      -4.99550000       0.97790000
H       -2.62510000      -6.20330000       0.27470000
