16
Properties=species:S:1:pos:R:3 gdb_18690=T pbc="F F F"
O        0.00600000      -0.04380000      -0.10640000
C       -0.01220000       1.16460000       0.02480000
N       -1.16330000       1.88500000       0.19570000
C       -1.20990000       3.33450000       0.03580000
C       -0.05680000       3.96240000       0.81020000
N        1.24170000       3.41920000       0.37300000
C        1.87430000       2.45540000       1.26800000
C        1.24550000       1.99580000      -0.00200000
H       -2.01330000       1.34860000       0.09760000
H       -1.15500000       3.62360000      -1.02390000
H       -2.16320000       3.70100000       0.42710000
H       -0.04680000       5.04520000       0.64630000
H       -0.21830000       3.78960000       1.88240000
H        2.95670000       2.51210000       1.34230000
H        1.36360000       2.21040000       2.19780000
H        1.89270000       1.74060000      -0.83680000
