14
Properties=species:S:1:pos:R:3 gdb_112504=T pbc="F F F"
O        0.04760000       1.17510000      -0.55410000
C        0.05190000      -0.18200000      -0.17660000
C       -1.34650000      -0.61150000       0.26370000
O       -2.30390000      -0.49120000      -0.83160000
C       -2.61720000      -1.89610000      -0.86820000
C       -2.26060000      -2.54700000      -2.12300000
N       -1.95360000      -3.06840000      -3.10770000
C       -1.63280000      -2.11130000       0.33130000
O       -1.28520000      -3.03680000       0.98520000
H       -0.55290000       1.25900000      -1.30430000
H        0.40130000      -0.83540000      -0.98990000
H        0.74310000      -0.28740000       0.66540000
H       -1.67030000      -0.03380000       1.13720000
H       -3.66640000      -2.09710000      -0.61920000
