18
Properties=species:S:1:pos:R:3 gdb_61463=T pbc="F F F"
C       -0.10890000       1.45070000       0.25450000
C        0.01870000      -0.05590000       0.04240000
O        0.77590000      -0.63640000       1.11910000
C        2.12390000      -0.67110000       0.95060000
N        2.71280000      -1.15720000       2.07980000
O        2.71120000      -0.30490000      -0.04110000
C       -1.33260000      -0.73520000      -0.00400000
C       -1.61970000      -2.03160000       0.61550000
O       -2.07310000      -0.81150000       1.21220000
H        0.88010000       1.91400000       0.25330000
H       -0.69870000       1.89880000      -0.55150000
H       -0.60710000       1.65450000       1.20600000
H        0.54900000      -0.25590000      -0.89410000
H        2.14670000      -1.58930000       2.78900000
H        3.68560000      -1.39980000       2.01810000
H       -1.92560000      -0.43630000      -0.87080000
H       -2.39990000      -2.66610000       0.19720000
H       -0.83170000      -2.54510000       1.15960000
