22
Properties=species:S:1:pos:R:3 gdb_69372=T pbc="F F F"
C       -0.01870000       1.57200000       0.18060000
C        0.05140000       0.07820000       0.05130000
C       -0.82760000      -0.86240000       0.83040000
C        0.66680000      -0.97190000       0.98190000
C        1.24860000      -1.73150000      -0.21420000
C        0.61500000      -0.66880000      -1.16900000
N        2.70060000      -1.68940000      -0.24910000
C        3.39030000      -2.83580000       0.33540000
C        3.34780000      -2.64710000      -1.14090000
H        0.93820000       2.03820000      -0.08000000
H       -0.78550000       1.99450000      -0.48090000
H       -0.26860000       1.86900000       1.20480000
H       -1.34570000      -0.42120000       1.67680000
H       -1.39040000      -1.64880000       0.32960000
H        1.16830000      -0.84310000       1.93410000
H        0.86800000      -2.76260000      -0.33480000
H       -0.11390000      -1.02480000      -1.90530000
H        1.40280000      -0.10990000      -1.67910000
H        4.29310000      -2.61050000       0.89600000
H        2.78410000      -3.64000000       0.74990000
H        2.71280000      -3.32510000      -1.70920000
H        4.21870000      -2.28170000      -1.67730000
