22
Properties=species:S:1:pos:R:3 gdb_102661=T pbc="F F F"
C        0.48100000       1.04450000      -0.29980000
O       -0.23500000       0.10560000       0.48100000
C        0.54160000      -0.74830000       1.31230000
C       -0.39790000      -1.12480000       2.46260000
O       -1.57880000      -1.73980000       1.98300000
C        1.04120000      -1.99110000       0.56430000
N        2.05260000      -1.66660000      -0.43640000
C        3.44240000      -1.70860000       0.01040000
C        2.89520000      -2.76950000      -0.87980000
H        1.12240000       0.55250000      -1.03730000
H       -0.26350000       1.66260000      -0.80900000
H        1.10190000       1.69650000       0.33430000
H        1.40340000      -0.19550000       1.72180000
H        0.08500000      -1.83940000       3.13730000
H       -0.62560000      -0.21390000       3.03700000
H       -1.92030000      -1.14390000       1.30480000
H        1.42260000      -2.71870000       1.30530000
H        0.18780000      -2.45510000       0.06170000
H        4.09500000      -0.93580000      -0.38530000
H        3.63590000      -1.98300000       1.04670000
H        2.72430000      -3.74910000      -0.43560000
H        3.13960000      -2.78570000      -1.93800000
