17
Properties=species:S:1:pos:R:3 gdb_8078=T pbc="F F F"
C       -0.07670000       1.52480000      -0.00640000
C        0.03250000       0.01790000       0.00380000
C        1.07620000      -0.71760000      -0.90040000
C        1.01970000      -1.83370000       0.16880000
C        0.69980000      -0.73070000       1.20470000
O       -0.15810000      -2.64010000      -0.04680000
C       -1.25780000      -1.87240000      -0.23860000
N       -1.28450000      -0.60540000      -0.23550000
H        0.89820000       1.99010000       0.17070000
H       -0.46140000       1.87290000      -0.97030000
H       -0.77220000       1.86210000       0.76880000
H        0.77920000      -0.96800000      -1.92100000
H        2.04850000      -0.22000000      -0.89290000
H        1.84480000      -2.52970000       0.31200000
H        1.61340000      -0.23510000       1.54060000
H        0.06820000      -0.99260000       2.05610000
H       -2.14600000      -2.47770000      -0.40120000
