18
Properties=species:S:1:pos:R:3 gdb_116581=T pbc="F F F"
C       -0.83590000       0.24950000      -0.75930000
C        0.11720000       0.33210000       0.43370000
N        0.36460000      -1.00300000       0.97360000
C        0.21310000      -1.22210000       2.19110000
O       -0.13560000      -0.35850000       3.24250000
C       -0.00850000      -1.42440000       4.22080000
C       -1.29970000      -2.23040000       4.39490000
O       -0.94850000      -3.10030000       3.28760000
C        0.31900000      -2.43300000       3.10030000
H       -1.81530000      -0.12760000      -0.44960000
H       -0.97520000       1.23820000      -1.20750000
H       -0.43920000      -0.42780000      -1.52070000
H        1.08250000       0.73160000       0.09780000
H       -0.27580000       1.02320000       1.19040000
H        0.60820000      -1.13750000       5.06970000
H       -1.36320000      -2.79470000       5.33280000
H       -2.22620000      -1.67280000       4.22490000
H        1.16540000      -3.11330000       3.01060000
