12
Properties=species:S:1:pos:R:3 gdb_843=T pbc="F F F"
C       -0.00320000       1.48480000       0.03980000
C       -0.00070000      -0.00370000      -0.02040000
C       -0.06880000      -0.82270000      -1.09260000
O       -0.03200000      -2.13250000      -0.63160000
C        0.05720000      -1.98850000       0.70720000
O        0.11110000      -3.10210000       1.43600000
N        0.08110000      -0.77870000       1.14620000
H        0.91190000       1.85540000       0.51360000
H       -0.07600000       1.91890000      -0.96060000
H       -0.84580000       1.84710000       0.63810000
H       -0.14090000      -0.69290000      -2.15760000
H        0.07430000      -3.85900000       0.83880000
