22
Properties=species:S:1:pos:R:3 gdb_11080=T pbc="F F F"
C       -0.25780000       1.54010000       0.06630000
C       -0.00780000       0.04860000       0.01360000
C        1.08360000      -0.45390000      -0.97800000
C        1.82090000      -1.19150000       0.17830000
C        0.69930000      -0.78510000       1.16980000
C        1.10980000      -0.21110000       2.50840000
C       -0.50760000      -1.77010000       1.15950000
C       -1.23440000      -0.89750000       0.09410000
H        0.67670000       2.10410000       0.16790000
H       -0.75000000       1.88520000      -0.85220000
H       -0.90570000       1.81210000       0.90760000
H        0.71040000      -1.09290000      -1.78400000
H        1.66900000       0.35070000      -1.43190000
H        1.97970000      -2.26690000       0.05170000
H        2.78500000      -0.73510000       0.42250000
H        1.84150000       0.59700000       2.39470000
H        0.25030000       0.19090000       3.05750000
H        1.56880000      -0.98340000       3.13910000
H       -0.26320000      -2.79010000       0.84800000
H       -1.03510000      -1.82890000       2.11570000
H       -2.12450000      -0.40060000       0.49200000
H       -1.51540000      -1.39540000      -0.83910000
