20
Properties=species:S:1:pos:R:3 gdb_69478=T pbc="F F F"
C        0.35640000       1.59950000       0.01570000
C       -0.02580000       0.15230000      -0.06650000
C       -1.04620000      -0.48850000       0.78180000
N        0.36920000      -0.87280000       0.99490000
C        0.74920000      -1.81490000      -0.12510000
C        0.12710000      -3.21160000      -0.10420000
C        0.55660000      -4.00210000       1.11510000
O        0.99780000      -5.12270000       1.07930000
C        0.34270000      -0.79040000      -1.21850000
H        1.40890000       1.74790000      -0.24890000
H       -0.25080000       2.20000000      -0.67210000
H        0.20280000       1.98400000       1.02800000
H       -1.44090000       0.08240000       1.61690000
H       -1.75220000      -1.19810000       0.35630000
H        1.83780000      -1.91690000      -0.08560000
H       -0.96900000      -3.13980000      -0.08800000
H        0.40800000      -3.77290000      -1.00100000
H        0.43740000      -3.46040000       2.07910000
H       -0.47650000      -1.06510000      -1.89050000
H        1.18840000      -0.45020000      -1.81930000
