20
Properties=species:S:1:pos:R:3 gdb_108057=T pbc="F F F"
C       -0.14890000       1.45990000       0.08320000
C        0.12250000      -0.01210000       0.00220000
C       -0.13480000      -0.89560000      -1.21310000
C       -0.16550000      -2.04170000      -0.18910000
C        1.26830000      -2.16150000       0.34920000
C        0.99540000      -0.78880000       0.94980000
C        1.64710000      -0.25000000       2.19030000
O        1.48190000      -1.14330000       3.28050000
N       -0.50680000      -1.01500000       0.93980000
H        0.61190000       2.02730000      -0.46500000
H       -1.12490000       1.69060000      -0.35640000
H       -0.15830000       1.81520000       1.11660000
H       -1.12750000      -0.69130000      -1.62470000
H        0.60220000      -0.93560000      -2.02250000
H       -0.80310000      -2.91290000      -0.32600000
H        1.34930000      -2.90350000       1.14680000
H        2.08740000      -2.28760000      -0.36700000
H        2.72740000      -0.14750000       2.03580000
H        1.25370000       0.74800000       2.43220000
H        0.53700000      -1.33710000       3.31840000
