21
Properties=species:S:1:pos:R:3 gdb_68613=T pbc="F F F"
C       -0.03240000       1.51010000       0.04630000
C        0.00330000       0.00130000       0.00200000
C        0.33530000      -0.80250000      -1.29260000
C       -0.37430000      -1.95980000      -0.53940000
C        0.58610000      -2.21590000       0.63650000
C        0.87170000      -0.73530000       1.04580000
C       -1.32540000      -0.85250000       0.03310000
C       -2.04290000      -1.05290000       1.27360000
C       -2.63160000      -1.21320000       2.31130000
H        0.97240000       1.93040000      -0.07710000
H       -0.66640000       1.92070000      -0.74660000
H       -0.42400000       1.86320000       1.00700000
H       -0.22600000      -0.44930000      -2.16170000
H        1.38970000      -0.93490000      -1.55200000
H       -0.78230000      -2.82600000      -1.06010000
H        0.11510000      -2.78800000       1.43940000
H        1.48550000      -2.75010000       0.31770000
H        1.92720000      -0.46230000       0.95050000
H        0.55470000      -0.51440000       2.06850000
H       -2.00830000      -0.49970000      -0.74670000
H       -3.15800000      -1.35690000       3.22200000
