14
Properties=species:S:1:pos:R:3 gdb_133278=T pbc="F F F"
C        0.07930000       1.43550000       0.06460000
N       -0.00910000      -0.00780000       0.15180000
C       -1.13750000      -0.58190000       0.07030000
N       -1.16100000      -1.98930000       0.16160000
N       -2.23960000      -2.76970000       0.10000000
C       -3.35480000      -2.15530000      -0.05900000
F       -4.46860000      -2.87290000      -0.12860000
C       -3.43760000      -0.72310000      -0.16380000
N       -2.39210000       0.02630000      -0.10340000
H        0.73730000       1.70780000      -0.76970000
H       -0.88560000       1.93600000      -0.07140000
H        0.55200000       1.82460000       0.97480000
H       -0.27780000      -2.46210000       0.28690000
H       -4.41460000      -0.25870000      -0.29840000
