19
Properties=species:S:1:pos:R:3 gdb_79788=T pbc="F F F"
C       -0.26340000       1.51520000      -0.04310000
N        0.02850000       0.09170000       0.00490000
C        1.16840000      -0.44630000      -0.77510000
C        2.47020000       0.27090000      -0.33700000
C        3.50030000      -0.87500000      -0.25020000
N        2.69420000      -1.42130000       0.89440000
C        2.20710000       0.00030000       1.18630000
C        0.70010000      -0.46190000       1.18230000
C        1.31710000      -1.58590000       0.32360000
H        0.59290000       2.16210000       0.21170000
H       -0.60450000       1.78210000      -1.04870000
H       -1.07550000       1.73970000       0.65640000
H        1.00790000      -0.63190000      -1.83750000
H        2.69650000       1.24880000      -0.76240000
H        3.61320000      -1.54650000      -1.10950000
H        4.48700000      -0.56320000       0.10410000
H        2.70670000       0.57040000       1.96760000
H        0.14970000      -0.57060000       2.11580000
H        0.91180000      -2.58130000       0.16160000
