18
Properties=species:S:1:pos:R:3 gdb_42735=T pbc="F F F"
O        0.01020000       0.04480000       0.04690000
C       -0.03040000       1.24690000       0.02290000
C       -1.22270000       2.20530000       0.00330000
C       -0.68570000       3.26690000       1.01090000
N        0.39610000       3.54810000      -0.02300000
C       -0.68500000       3.22570000      -1.04550000
C        1.10030000       2.25170000       0.00320000
C        2.38300000       2.06020000       0.76050000
C        2.38350000       2.03010000      -0.74500000
H       -2.22240000       1.77470000       0.01160000
H       -1.34120000       4.13400000       1.11890000
H       -0.31670000       2.93970000       1.98610000
H       -0.31530000       2.85980000      -2.00660000
H       -1.34040000       4.08780000      -1.18850000
H        2.79220000       2.93830000       1.24730000
H        2.50450000       1.12320000       1.29310000
H        2.50530000       1.07250000      -1.23970000
H        2.79300000       2.88800000      -1.26630000
