16
Properties=species:S:1:pos:R:3 gdb_37079=T pbc="F F F"
C        0.08360000       1.39040000      -0.24670000
C        1.59100000       1.29580000       0.29350000
C        2.31780000       0.36200000      -0.37530000
C        1.97890000      -0.99920000       0.33820000
C        0.57240000      -1.02040000      -0.36760000
C       -0.16650000      -0.09620000       0.30130000
C        0.31580000      -0.07960000       1.73100000
C        1.47220000       0.83630000       1.72590000
N        1.69900000      -0.63780000       1.75450000
H       -0.52370000       2.15990000       0.23390000
H        0.01290000       1.47360000      -1.33150000
H        2.38820000       0.35770000      -1.46140000
H        2.65300000      -1.85080000       0.24470000
H        0.55450000      -1.09460000      -1.45320000
H       -0.33290000      -0.26050000       2.58160000
H        1.80150000       1.43010000       2.57210000
