15
Properties=species:S:1:pos:R:3 gdb_1482=T pbc="F F F"
C        0.03120000       1.65210000       0.02130000
C        0.01360000       0.12960000      -0.00500000
C        0.72050000      -0.51180000       1.19090000
O        0.14390000      -0.12640000       2.42010000
O       -1.35880000      -0.32970000       0.06440000
C       -1.95080000      -0.77930000      -1.05680000
O       -3.08050000      -1.16430000      -1.08270000
H        1.05950000       2.01680000      -0.06400000
H       -0.55050000       2.06330000      -0.80820000
H       -0.38660000       2.01420000       0.96300000
H        0.46680000      -0.24780000      -0.93200000
H        0.71270000      -1.60510000       1.06330000
H        1.76490000      -0.18350000       1.21310000
H       -0.78180000      -0.39510000       2.38980000
H       -1.27700000      -0.75520000      -1.93590000
