16
Properties=species:S:1:pos:R:3 gdb_47381=T pbc="F F F"
O       -0.07250000      -0.05680000       0.32730000
C       -0.04900000       1.11700000       0.05460000
C       -1.32970000       1.94810000      -0.02970000
O       -1.28760000       2.97010000      -1.01060000
C       -0.17510000       3.82330000      -0.88260000
C        1.13970000       3.05640000      -1.13660000
C        1.25530000       1.88820000      -0.12640000
C        1.19560000       2.57210000      -2.51950000
N        1.25370000       2.19200000      -3.60900000
H       -2.16510000       1.29090000      -0.27530000
H       -1.51130000       2.37820000       0.97300000
H       -0.30790000       4.62170000      -1.61570000
H       -0.12950000       4.27410000       0.12310000
H        1.98370000       3.74200000      -0.99470000
H        1.49750000       2.31810000       0.85530000
H        2.05220000       1.18810000      -0.38330000
