11
Properties=species:S:1:pos:R:3 gdb_21905=T pbc="F F F"
O       -0.06890000       1.28610000      -0.27600000
C        0.03390000      -0.02170000      -0.01100000
N        1.21070000      -0.53540000       0.09070000
O        1.25550000      -1.91870000       0.37140000
C        0.10580000      -2.64290000       0.52090000
N        0.09810000      -3.88750000       0.77350000
C       -1.14470000      -1.89660000       0.37220000
N       -1.20200000      -0.64300000       0.11790000
H        0.82880000       1.64090000      -0.34990000
H        1.04850000      -4.25640000       0.84630000
H       -2.06320000      -2.46710000       0.49010000
