19
Properties=species:S:1:pos:R:3 gdb_99303=T pbc="F F F"
C        0.68670000       0.98080000       0.32600000
N        0.03140000      -0.17760000      -0.24220000
C        0.61060000      -0.95300000      -1.19090000
O        1.70310000      -0.76070000      -1.69010000
O       -0.22070000      -1.97770000      -1.51500000
C        0.26400000      -2.87830000      -2.53170000
C        1.09310000      -3.99490000      -1.95500000
C        2.23370000      -4.52060000      -2.75090000
N        2.47760000      -3.74380000      -1.53160000
H        0.82740000       0.86990000       1.40700000
H        1.66340000       1.07220000      -0.14980000
H        0.11440000       1.89650000       0.13900000
H       -0.87810000      -0.45730000       0.08470000
H       -0.64100000      -3.27000000      -3.00480000
H        0.83980000      -2.30720000      -3.26460000
H        0.54920000      -4.67720000      -1.30430000
H        2.49370000      -5.57380000      -2.69170000
H        2.43270000      -4.06130000      -3.71680000
H        2.72040000      -2.78120000      -1.75940000
