21
Properties=species:S:1:pos:R:3 gdb_122274=T pbc="F F F"
C        0.14070000       1.32480000      -0.22700000
O        0.06050000      -0.04870000       0.06410000
C       -1.25210000      -0.55690000      -0.04880000
C       -1.21570000      -2.03230000       0.34290000
C       -2.54070000      -2.74370000       0.14900000
C       -2.97150000      -3.17640000      -1.25150000
C       -2.54970000      -4.21400000      -0.27050000
C       -3.65020000      -2.37000000       1.06020000
O       -3.57850000      -1.55230000       1.94540000
H        1.18520000       1.62490000      -0.11150000
H       -0.17910000       1.54480000      -1.25870000
H       -0.47980000       1.92560000       0.45670000
H       -1.94100000      -0.00660000       0.60830000
H       -1.61860000      -0.44300000      -1.08450000
H       -0.44250000      -2.52640000      -0.25540000
H       -0.91110000      -2.10780000       1.39180000
H       -4.02370000      -3.10350000      -1.50670000
H       -2.29550000      -2.91480000      -2.05780000
H       -1.57750000      -4.67960000      -0.38380000
H       -3.31000000      -4.85870000       0.15770000
H       -4.59920000      -2.92680000       0.87040000
