17
Properties=species:S:1:pos:R:3 gdb_69126=T pbc="F F F"
C        0.01100000       1.55600000       0.01690000
C        0.08100000       0.05110000       0.01140000
C       -0.79900000      -0.80310000       0.87640000
C        0.72150000      -0.76160000       1.11600000
C        1.51450000      -1.83150000       0.44730000
O        2.27710000      -2.62790000       0.93270000
C        1.21000000      -1.73370000      -1.04880000
N        1.52670000      -2.56680000      -1.95580000
N        0.50770000      -0.56160000      -1.23060000
H        0.97200000       1.98880000      -0.27580000
H       -0.75110000       1.91290000      -0.68540000
H       -0.25410000       1.92830000       1.01020000
H       -1.39530000      -0.32680000       1.64720000
H       -1.23170000      -1.70350000       0.45360000
H        1.08670000      -0.32370000       2.03570000
H        2.07390000      -3.31370000      -1.52160000
H       -0.05900000      -0.46240000      -2.06070000
