15
Properties=species:S:1:pos:R:3 gdb_11740=T pbc="F F F"
O        0.61320000       0.20760000       0.88900000
C       -0.04100000       0.18010000      -0.36720000
C       -1.43430000      -0.38630000      -0.27630000
C       -2.34160000      -0.34790000       0.91250000
C       -1.90540000      -1.69920000       0.32480000
C       -2.68560000      -1.89870000      -0.96310000
O       -3.44430000      -2.70940000      -1.40930000
N       -2.17920000      -0.69340000      -1.50710000
H        0.27330000       0.95780000       1.38600000
H       -0.07480000       1.17980000      -0.82860000
H        0.56010000      -0.45610000      -1.02530000
H       -1.87750000      -0.12570000       1.86900000
H       -3.37160000      -0.01730000       0.81320000
H       -1.36060000      -2.43090000       0.90340000
H       -2.77230000      -0.02190000      -1.98390000
