18
Properties=species:S:1:pos:R:3 gdb_32813=T pbc="F F F"
C        0.29020000       1.51250000       0.09870000
N        0.24960000       0.05390000       0.01170000
H        1.39700000      -1.27530000       0.86030000
H       -0.62000000      -0.28350000       0.41570000
C        0.33950000      -0.45800000      -1.37080000
C        0.49310000      -1.94790000      -1.34580000
C        1.10610000      -2.63500000      -0.33460000
O        1.64370000      -2.22850000       0.81600000
O        1.13660000      -3.95740000      -0.57330000
C        0.52680000      -4.14610000      -1.79490000
C        0.11610000      -2.95760000      -2.29950000
H        1.26930000       1.86920000      -0.23650000
H       -0.47830000       2.00980000      -0.51500000
H        0.15530000       1.82180000       1.13860000
H       -0.53000000      -0.16050000      -1.98090000
H        1.21250000       0.02930000      -1.82910000
H        0.47820000      -5.16620000      -2.13280000
H       -0.39290000      -2.80590000      -3.23960000
