19
Properties=species:S:1:pos:R:3 gdb_71035=T pbc="F F F"
O        0.02140000       1.36450000       0.00890000
C        0.03590000      -0.01720000       0.04230000
C        0.65930000      -0.95400000       1.14010000
C       -0.04540000      -1.88910000       0.13730000
C       -0.45420000      -3.27320000      -0.31930000
C       -1.24240000      -2.82600000      -1.61380000
C       -1.08680000      -1.27900000      -1.57830000
C       -1.23250000      -0.88900000      -0.09110000
C        0.36180000      -1.02620000      -1.10510000
H        0.93120000       1.67900000      -0.02670000
H        1.75260000      -1.00840000       1.18660000
H        0.22960000      -0.88330000       2.14430000
H        0.39370000      -3.92390000      -0.55310000
H       -1.09430000      -3.79680000       0.39710000
H       -0.80960000      -3.25780000      -2.52210000
H       -2.29320000      -3.13100000      -1.57550000
H       -1.55380000      -0.71430000      -2.38680000
H       -2.12650000      -0.84490000       0.53430000
H        1.30200000      -1.14080000      -1.65020000
