20
Properties=species:S:1:pos:R:3 gdb_75190=T pbc="F F F"
C       -0.41310000       1.57480000      -0.02140000
C       -0.27900000       0.08710000      -0.02540000
C       -0.16480000      -0.73440000      -1.06790000
C       -0.08980000      -2.16950000      -0.62980000
N        0.10690000      -2.06040000       0.82140000
C       -0.37510000      -3.15430000       1.62710000
C        0.34680000      -3.22230000       2.96520000
O       -0.15380000      -3.58740000       3.99610000
C       -0.29560000      -0.71810000       1.25250000
H        0.40190000       2.04570000       0.54250000
H       -0.40390000       1.98060000      -1.03630000
H       -1.34730000       1.88810000       0.46200000
H       -0.15170000      -0.43890000      -2.11020000
H       -1.01940000      -2.70990000      -0.89610000
H        0.73740000      -2.72420000      -1.09650000
H       -1.46460000      -3.14880000       1.81380000
H       -0.13990000      -4.09800000       1.11310000
H        1.41510000      -2.91200000       2.90200000
H        0.38980000      -0.31950000       2.01550000
H       -1.30770000      -0.70170000       1.70640000
