17
Properties=species:S:1:pos:R:3 gdb_61316=T pbc="F F F"
C       -0.08540000       1.58430000      -0.03260000
C       -0.05070000       0.04540000      -0.00560000
C        0.76800000      -0.49690000       1.20690000
C        2.16680000      -0.10350000       1.17530000
C        3.33190000       0.22280000       1.13230000
C        4.64210000       0.58770000       1.08770000
C        5.80470000       0.91190000       1.04760000
C       -1.39780000      -0.51910000       0.02270000
C       -2.50720000      -0.97940000       0.07230000
H        0.93150000       1.98380000      -0.06770000
H       -0.63330000       1.94030000      -0.90830000
H       -0.58310000       1.97390000       0.86070000
H        0.45210000      -0.30430000      -0.91630000
H        0.29990000      -0.14190000       2.13390000
H        0.69360000      -1.59050000       1.22290000
H        6.82700000       1.19600000       1.01360000
H       -3.48750000      -1.38690000       0.09980000
