16
Properties=species:S:1:pos:R:3 gdb_1287=T pbc="F F F"
N       -0.02990000       1.29550000      -0.21080000
C        0.04880000      -0.00730000       0.19420000
O        1.08310000      -0.49760000       0.60160000
C       -1.26550000      -0.78420000       0.10850000
C       -1.03890000      -2.28510000      -0.07540000
C       -2.32780000      -3.08750000       0.03370000
O       -2.00780000      -4.45360000      -0.17500000
H        0.78110000       1.88000000      -0.09130000
H       -0.89620000       1.72130000      -0.48850000
H       -1.80690000      -0.59870000       1.04740000
H       -1.89440000      -0.37720000      -0.69290000
H       -0.58330000      -2.48000000      -1.05240000
H       -0.32400000      -2.63250000       0.67500000
H       -2.78000000      -2.92980000       1.02770000
H       -3.05870000      -2.73180000      -0.71250000
H       -2.81710000      -4.96760000      -0.10160000
