17
Properties=species:S:1:pos:R:3 gdb_41009=T pbc="F F F"
C       -0.06570000       1.49200000       0.21470000
C        1.49290000       1.56630000      -0.04470000
C        1.28760000       0.27590000      -0.85870000
C        0.06490000      -0.04420000      -0.05020000
O       -0.69960000      -0.90070000      -0.91390000
C        0.21230000      -1.06090000      -1.98220000
C        0.81210000       0.29720000      -2.36600000
O        2.05660000      -0.31640000      -2.82630000
C        1.77760000      -1.00560000      -1.57010000
H       -0.43330000       1.80410000       1.19350000
H       -0.62600000       2.00400000      -0.57050000
H        1.88680000       2.43620000      -0.57120000
H        2.05800000       1.41470000       0.87860000
H        0.25700000      -0.57240000       0.89100000
H       -0.12910000      -1.77460000      -2.72870000
H        0.38970000       1.11390000      -2.95170000
H        2.45910000      -1.79310000      -1.24910000
