18
Properties=species:S:1:pos:R:3 gdb_126282=T pbc="F F F"
C        0.08370000       1.55330000      -0.11790000
C       -0.04990000       0.02760000       0.03470000
C        0.64940000      -0.49820000       1.26230000
C       -0.00980000      -0.91620000       2.36830000
C        0.69660000      -1.39330000       3.54430000
N        0.08350000      -1.78980000       4.60110000
N        2.08960000      -1.36440000       3.37830000
N        2.78370000      -0.96890000       2.29850000
C        2.09280000      -0.55040000       1.28420000
H        1.13300000       1.85890000      -0.17900000
H       -0.41940000       1.89500000      -1.02720000
H       -0.36410000       2.06980000       0.73640000
H       -1.10860000      -0.24680000       0.07720000
H        0.36800000      -0.46130000      -0.85460000
H       -1.09200000      -0.91750000       2.43380000
H        0.73650000      -2.09020000       5.32690000
H        2.67080000      -1.68260000       4.13970000
H        2.67220000      -0.23940000       0.42100000
