23
Properties=species:S:1:pos:R:3 gdb_58422=T pbc="F F F"
C       -0.12370000       1.55730000      -0.04960000
C        0.00300000       0.03330000      -0.01820000
O        0.52440000      -0.40800000      -1.29190000
C        0.79140000      -0.51080000       1.18860000
C        0.61470000       0.28800000       2.47210000
C        0.89930000      -2.02900000       1.38980000
C        0.29570000      -3.03900000       0.43530000
C        2.12750000      -1.22630000       1.02850000
O        2.79860000      -1.39180000      -0.18250000
H        0.86450000       2.03430000      -0.05600000
H       -0.65980000       1.85410000      -0.95580000
H       -0.67430000       1.94170000       0.81130000
H       -1.00850000      -0.39250000       0.01710000
H        1.14520000       0.26620000      -1.59090000
H       -0.44190000       0.36040000       2.76050000
H        1.13960000      -0.20090000       3.29800000
H        1.01210000       1.30490000       2.39040000
H        0.83960000      -2.34310000       2.43030000
H        0.34680000      -2.72200000      -0.60780000
H        0.81600000      -3.99930000       0.51840000
H       -0.76000000      -3.21540000       0.67040000
H        2.85580000      -1.05000000       1.81590000
H        2.12070000      -1.40810000      -0.87090000
