17
Properties=species:S:1:pos:R:3 gdb_36633=T pbc="F F F"
N        0.07200000      -1.19120000      -0.07830000
C        0.01620000      -0.03720000      -0.06410000
C       -0.03740000       1.42250000      -0.04450000
C        1.36110000       2.04760000       0.09200000
C        1.29960000       3.54210000       0.11110000
N        0.25030000       4.25190000       0.02770000
C        0.68840000       5.65480000       0.09040000
C        2.23210000       5.57710000       0.22920000
O        2.50630000       4.15620000       0.23050000
H       -0.51860000       1.77960000      -0.95970000
H       -0.67560000       1.75050000       0.78120000
H        1.85150000       1.70200000       1.00850000
H        2.00870000       1.73070000      -0.73270000
H        0.37390000       6.18440000      -0.81460000
H        0.21470000       6.15570000       0.94090000
H        2.77160000       6.02850000      -0.60770000
H        2.61090000       5.99910000       1.16380000
