21
Properties=species:S:1:pos:R:3 gdb_118279=T pbc="F F F"
C        0.93460000       1.16970000      -0.06050000
O        0.93770000      -0.22120000      -0.27930000
C       -0.16210000      -0.66480000      -1.03890000
C       -0.06780000      -2.18230000      -1.21280000
O       -1.25210000      -2.66840000      -1.83820000
C        1.19820000      -2.60600000      -1.95880000
C        1.34220000      -4.13820000      -2.04270000
C        2.49510000      -4.55840000      -2.82850000
C        3.45030000      -4.87830000      -3.48460000
H        0.98360000       1.73150000      -1.00670000
H        0.03430000       1.49410000       0.48450000
H        1.81630000       1.40890000       0.53870000
H       -1.11450000      -0.42110000      -0.54190000
H       -0.17410000      -0.17560000      -2.03150000
H       -0.06960000      -2.63610000      -0.21440000
H       -1.26550000      -2.33310000      -2.74220000
H        1.17470000      -2.18690000      -2.97460000
H        2.06790000      -2.16910000      -1.46040000
H        1.42000000      -4.55060000      -1.02800000
H        0.42430000      -4.55840000      -2.46970000
H        4.29180000      -5.17490000      -4.05970000
