21
Properties=species:S:1:pos:R:3 gdb_118530=T pbc="F F F"
C       -0.12400000       1.47520000       0.08680000
C       -0.03510000      -0.03870000       0.00400000
O       -1.35000000      -0.56790000       0.09220000
C       -1.43480000      -1.98980000       0.05270000
C       -1.48700000      -2.50850000       1.49470000
O       -2.54340000      -1.90060000       2.21100000
C       -2.70690000      -2.35130000      -0.73420000
C       -2.65930000      -1.90870000      -2.12080000
C       -2.60140000      -1.55570000      -3.26820000
H        0.87170000       1.91920000      -0.00470000
H       -0.75530000       1.86330000      -0.71710000
H       -0.55450000       1.78750000       1.04290000
H        0.42060000      -0.34800000      -0.94890000
H        0.59950000      -0.43130000       0.81420000
H       -0.55980000      -2.40930000      -0.46360000
H       -1.66000000      -3.59000000       1.51140000
H       -0.51450000      -2.32190000       1.97880000
H       -2.46660000      -0.95610000       2.02250000
H       -2.84720000      -3.43870000      -0.69450000
H       -3.56380000      -1.90780000      -0.21590000
H       -2.56470000      -1.23990000      -4.28100000
