19
Properties=species:S:1:pos:R:3 gdb_92717=T pbc="F F F"
C       -0.18750000       1.44910000       0.23510000
C       -0.02430000      -0.03070000       0.08370000
C        0.04850000      -0.72180000      -1.05830000
C        0.12060000      -2.21220000      -0.84090000
C        0.49340000      -2.32850000       0.65410000
O        1.89320000      -2.48550000       0.84310000
C       -0.00920000      -0.97950000       1.27200000
C        0.85690000      -0.60620000       2.45890000
O        1.61490000       0.33000000       2.50310000
H        0.63570000       1.87320000       0.81650000
H       -0.23170000       1.94350000      -0.73920000
H       -1.11230000       1.68720000       0.77710000
H        0.00830000      -0.27390000      -2.04580000
H       -0.84570000      -2.69110000      -1.05320000
H        0.86940000      -2.72530000      -1.45430000
H        0.04530000      -3.19840000       1.13880000
H        2.33250000      -1.73600000       0.42210000
H       -1.03040000      -1.11940000       1.66450000
H        0.74830000      -1.29280000       3.32790000
