21
Properties=species:S:1:pos:R:3 gdb_56271=T pbc="F F F"
N       -0.04340000       1.32440000       0.01570000
C       -0.01370000      -0.06110000      -0.14250000
O        0.91260000      -0.63540000      -0.68450000
N       -1.10730000      -0.70070000       0.39300000
C       -1.18850000      -2.15050000       0.45420000
C       -2.48020000      -2.69450000      -0.16930000
C       -2.56060000      -4.20430000      -0.10160000
C       -3.07900000      -4.88930000       1.14010000
C       -3.89310000      -4.90700000      -0.13060000
H        0.63920000       1.78090000      -0.57080000
H       -0.94880000       1.77070000      -0.00320000
H       -1.70160000      -0.17420000       1.01290000
H       -0.31370000      -2.52370000      -0.08330000
H       -1.10540000      -2.49690000       1.49350000
H       -3.34880000      -2.26190000       0.34710000
H       -2.53880000      -2.35510000      -1.21100000
H       -1.74830000      -4.71500000      -0.61360000
H       -2.60550000      -5.80970000       1.46340000
H       -3.42950000      -4.26330000       1.95490000
H       -4.78770000      -4.29350000      -0.16720000
H       -3.97390000      -5.83940000      -0.67810000
