19
Properties=species:S:1:pos:R:3 gdb_77593=T pbc="F F F"
C       -0.17450000       1.54660000      -0.08580000
C        0.06240000       0.04700000       0.02860000
C        1.09050000      -0.65420000      -0.88840000
O        0.75170000      -1.27610000      -2.07610000
C        2.50220000      -0.26990000      -0.55300000
C        1.78340000      -1.29080000       0.31220000
C        0.83570000      -0.54940000       1.22840000
C        1.03380000      -0.05020000       2.58990000
O        0.16840000      -1.16670000       2.31170000
H        0.76100000       2.11170000      -0.02180000
H       -0.65240000       1.79510000      -1.03990000
H       -0.83490000       1.90240000       0.71230000
H       -0.88390000      -0.50010000      -0.04650000
H        0.91510000      -0.66150000      -2.79970000
H        3.24530000      -0.70060000      -1.21710000
H        2.76060000       0.71000000      -0.15850000
H        2.14890000      -2.29950000       0.45510000
H        1.94890000      -0.29300000       3.12880000
H        0.52660000       0.85510000       2.92130000
