23
Properties=species:S:1:pos:R:3 gdb_108636=T pbc="F F F"
C       -0.37370000       1.30030000      -0.11870000
C       -0.02920000      -0.19070000      -0.02760000
C        0.93200000      -0.62160000      -1.16730000
C        2.30350000      -0.62280000      -0.52270000
C        3.53100000      -0.73060000      -1.37390000
C        2.20710000      -0.56540000       0.81400000
C        3.31250000      -0.56420000       1.82510000
O        3.27020000       0.58530000       2.67410000
C        0.76270000      -0.51140000       1.26780000
H        0.53570000       1.91190000      -0.08390000
H       -0.89620000       1.53200000      -1.05300000
H       -1.01570000       1.61010000       0.71260000
H       -0.96010000      -0.76480000      -0.06690000
H        0.69180000      -1.62460000      -1.55010000
H        0.87870000       0.05160000      -2.03340000
H        3.56660000       0.08070000      -2.11230000
H        4.45650000      -0.70170000      -0.79400000
H        3.52690000      -1.66690000      -1.94740000
H        3.20600000      -1.41740000       2.50700000
H        4.29510000      -0.65940000       1.34180000
H        3.30470000       1.35820000       2.10070000
H        0.60590000       0.23560000       2.05370000
H        0.46390000      -1.47780000       1.70000000
