21
Properties=species:S:1:pos:R:3 gdb_115114=T pbc="F F F"
C       -0.29950000       1.53340000       0.08240000
O       -0.09830000       0.18730000      -0.27780000
C       -1.20580000      -0.65960000       0.01060000
C       -1.08530000      -1.86800000      -0.92690000
C       -2.30140000      -2.75580000      -0.96020000
C       -3.10770000      -3.11990000       0.03700000
C       -3.04190000      -2.83360000       1.51240000
C       -1.97090000      -1.94470000       2.08270000
C       -1.21550000      -1.03280000       1.47520000
H        0.60260000       2.08290000      -0.19840000
H       -1.16170000       1.96990000      -0.44700000
H       -0.46510000       1.66180000       1.16300000
H       -2.13770000      -0.12640000      -0.24420000
H       -0.89690000      -1.47750000      -1.93230000
H       -0.18900000      -2.43630000      -0.64770000
H       -2.55180000      -3.13740000      -1.94800000
H       -3.94710000      -3.76360000      -0.22380000
H       -4.02180000      -2.44170000       1.83500000
H       -2.98120000      -3.80610000       2.02620000
H       -1.83570000      -2.06540000       3.15630000
H       -0.49490000      -0.48190000       2.07540000
