13
Properties=species:S:1:pos:R:3 gdb_12169=T pbc="F F F"
O        0.32740000       1.13370000       0.43420000
C        0.21430000      -0.18570000       0.01300000
C       -1.20520000      -0.82160000      -0.22240000
O       -0.77100000      -1.20990000      -1.57960000
C        0.40940000      -0.51050000      -1.45760000
N        1.27350000      -0.18910000      -2.30580000
C       -1.61100000      -1.94090000       0.59230000
C       -1.93120000      -2.85910000       1.29820000
H        0.26120000       1.70800000      -0.33680000
H        0.81480000      -0.81460000       0.67540000
H       -1.98840000      -0.06090000      -0.29560000
H        1.03950000      -0.53470000      -3.23820000
H       -2.22080000      -3.67300000       1.91670000
