18
Properties=species:S:1:pos:R:3 gdb_111716=T pbc="F F F"
C       -0.38860000       1.00880000      -0.15960000
O        0.58280000       0.00620000       0.09490000
C        1.00440000      -0.64340000      -1.05000000
C        1.62950000      -1.98300000      -0.95180000
C        0.99370000      -2.80920000       0.17180000
C       -0.41010000      -2.63880000      -0.48480000
C        0.22350000      -1.81870000      -1.62500000
C       -0.13940000      -1.88810000      -2.99950000
N       -0.43980000      -1.94220000      -4.11730000
H        0.01020000       1.79190000      -0.81990000
H       -1.29050000       0.58680000      -0.62290000
H       -0.64890000       1.45120000       0.80370000
H        1.42390000       0.00920000      -1.81790000
H        2.57110000      -2.20120000      -1.44080000
H        1.32870000      -3.84720000       0.16390000
H        1.11540000      -2.39640000       1.17480000
H       -0.82550000      -3.58230000      -0.83970000
H       -1.16510000      -2.10930000       0.10020000
