19
Properties=species:S:1:pos:R:3 gdb_106602=T pbc="F F F"
O       -0.18900000       1.32710000       0.24640000
C       -0.11090000      -0.07900000       0.11640000
C       -1.46820000      -0.67220000      -0.11770000
C       -2.53880000      -0.30130000      -1.17800000
C       -3.19090000      -1.18580000      -0.09010000
C       -4.62540000      -1.49060000       0.22320000
O       -4.73890000      -2.18100000       1.45240000
C       -1.96510000      -2.13640000      -0.13080000
O       -2.47790000      -0.37490000       0.94820000
H       -0.89680000       1.50250000       0.87820000
H        0.54180000      -0.29100000      -0.73730000
H        0.33540000      -0.55010000       1.00710000
H       -2.84650000       0.74430000      -1.17980000
H       -2.42870000      -0.72030000      -2.18100000
H       -5.19770000      -0.54890000       0.22640000
H       -5.04830000      -2.13720000      -0.55330000
H       -4.21020000      -1.68740000       2.09090000
H       -1.80580000      -2.72350000      -1.03830000
H       -1.78620000      -2.70120000       0.78400000
