23
Properties=species:S:1:pos:R:3 gdb_120045=T pbc="F F F"
C       -0.05360000       1.57650000      -0.02910000
C       -0.08800000       0.05130000       0.09910000
C        0.80610000      -0.48170000       1.22610000
C        0.79470000      -2.00360000       1.33490000
C        1.48350000      -2.72570000       2.49370000
C        0.46410000      -2.86980000       3.63890000
C       -0.84950000      -2.24250000       3.17930000
C       -0.48930000      -2.78650000       1.76920000
C        0.46280000      -3.83570000       2.47830000
H        0.96180000       1.93330000      -0.23540000
H       -0.70060000       1.92650000      -0.83980000
H       -0.38910000       2.05850000       0.89600000
H       -1.12150000      -0.27750000       0.27040000
H        0.21970000      -0.40420000      -0.85170000
H        1.84060000      -0.15160000       1.05440000
H        0.50550000      -0.02950000       2.17890000
H        1.15160000      -2.43910000       0.39260000
H        2.54570000      -2.80940000       2.68990000
H        0.79860000      -3.05680000       4.65160000
H       -1.70410000      -2.78200000       3.59790000
H       -1.01000000      -1.16520000       3.29950000
H       -1.27020000      -3.01300000       1.04590000
H        0.56100000      -4.90990000       2.42320000
