19
Properties=species:S:1:pos:R:3 gdb_126155=T pbc="F F F"
C        0.09820000       1.53260000       0.00050000
C        0.00860000       0.00830000      -0.11710000
C       -1.43010000      -0.54910000      -0.00970000
C       -2.34270000      -0.08220000      -1.15820000
C       -1.40130000      -2.04890000       0.06430000
N       -1.79340000      -2.70850000       1.12280000
O       -1.62130000      -4.03560000       0.83400000
N       -1.11510000      -4.20750000      -0.42140000
C       -0.97460000      -3.00620000      -0.90630000
H        1.14300000       1.85720000      -0.00690000
H       -0.40810000       2.04120000      -0.82520000
H       -0.35170000       1.88290000       0.93600000
H        0.45050000      -0.31560000      -1.06900000
H        0.61410000      -0.44970000       0.67330000
H       -1.85870000      -0.20340000       0.93800000
H       -3.34560000      -0.50630000      -1.05760000
H       -2.43790000       1.00640000      -1.16250000
H       -1.94330000      -0.38700000      -2.13220000
H       -0.58660000      -2.85570000      -1.90160000
