17
Properties=species:S:1:pos:R:3 gdb_7080=T pbc="F F F"
C        0.00200000       1.85680000       0.35350000
C       -0.04120000       0.37050000      -0.00620000
C        0.83780000      -0.47130000       0.94600000
C        0.91600000      -1.93430000       0.55410000
O        0.61040000      -2.84090000       1.28540000
N       -1.42390000      -0.09760000      -0.02040000
C       -1.87010000      -1.03410000      -0.89870000
O       -1.18930000      -1.55020000      -1.76180000
H        1.02870000       2.23120000       0.31900000
H       -0.60290000       2.44130000      -0.34480000
H       -0.37870000       2.02950000       1.36730000
H        0.32310000       0.22910000      -1.02840000
H        1.85870000      -0.06480000       0.91520000
H        0.47400000      -0.40680000       1.97680000
H        1.28830000      -2.12110000      -0.47550000
H       -2.04950000       0.21880000       0.70460000
H       -2.94080000      -1.27190000      -0.74840000
