20
Properties=species:S:1:pos:R:3 gdb_114747=T pbc="F F F"
C        0.28140000       0.82100000       0.59170000
O        0.28260000      -0.47280000       0.03710000
C        0.59080000      -0.52060000      -1.34580000
C        2.11400000      -0.52360000      -1.63050000
C        2.49100000      -1.99120000      -1.75410000
N        2.00300000      -2.80790000      -0.62230000
C        1.26340000      -2.80560000      -1.90290000
C        0.05080000      -1.88640000      -1.89080000
O       -1.06380000      -2.35780000      -1.17890000
H        1.27610000       1.28910000       0.55510000
H       -0.43080000       1.48260000       0.07430000
H       -0.01830000       0.72400000       1.63800000
H        0.09000000       0.31930000      -1.84750000
H        2.32550000      -0.00860000      -2.57500000
H        2.66780000      -0.00780000      -0.83980000
H        3.42250000      -2.26710000      -2.23860000
H        2.55450000      -3.66080000      -0.56540000
H        1.23350000      -3.71230000      -2.49840000
H       -0.27270000      -1.74400000      -2.93000000
H       -0.89770000      -2.11070000      -0.25890000
