23
Properties=species:S:1:pos:R:3 gdb_113196=T pbc="F F F"
C       -0.44710000       1.47960000       0.27800000
C        0.27750000       0.17130000      -0.05760000
C        0.87890000      -0.49420000       1.16270000
C        0.01900000      -1.35610000       2.07630000
C        1.10130000      -1.97640000       1.23260000
O        0.72520000      -2.70230000       0.08030000
C        2.37310000      -2.52600000       1.85880000
C        2.17480000      -3.91680000       2.47330000
O        3.41070000      -2.54280000       0.88780000
H        0.23360000       2.20510000       0.73700000
H       -0.86640000       1.94060000      -0.62190000
H       -1.26810000       1.30690000       0.98220000
H       -0.40920000      -0.52680000      -0.54600000
H        1.07500000       0.37000000      -0.78490000
H        1.64020000       0.09870000       1.66560000
H        0.15590000      -1.29690000       3.15130000
H       -1.00510000      -1.53180000       1.76030000
H        0.25800000      -3.49490000       0.36560000
H        2.70160000      -1.83420000       2.64390000
H        1.83530000      -4.63260000       1.71540000
H        3.12360000      -4.28490000       2.87140000
H        1.43830000      -3.89540000       3.28360000
H        3.00110000      -2.86990000       0.07650000
