18
Properties=species:S:1:pos:R:3 gdb_12536=T pbc="F F F"
C       -0.32270000       1.39480000       0.02120000
C        0.10000000      -0.06270000      -0.00280000
O        0.81800000      -0.27380000      -1.19300000
C        0.87860000      -1.60170000      -1.66650000
C        1.40720000      -2.65670000      -0.73320000
C        1.45800000      -2.66400000       0.59740000
C        1.00250000      -1.61940000       1.57980000
O        0.90640000      -0.28650000       1.12690000
H        0.56860000       2.02660000      -0.00950000
H       -0.94700000       1.62100000      -0.84600000
H       -0.87870000       1.61140000       0.93610000
H       -0.77840000      -0.73480000       0.02690000
H       -0.12130000      -1.92520000      -2.01480000
H        1.51190000      -1.55950000      -2.55990000
H        1.73820000      -3.55380000      -1.25510000
H        1.82730000      -3.56660000       1.08280000
H        0.03190000      -1.94730000       1.99970000
H        1.70200000      -1.58670000       2.42270000
