13
Properties=species:S:1:pos:R:3 gdb_4302=T pbc="F F F"
C        0.02660000       1.50890000       0.02210000
C       -0.03160000       0.01330000       0.01490000
C       -1.18250000      -0.68770000      -0.15140000
C       -1.18860000      -2.12970000      -0.15080000
O       -2.10370000      -2.88860000      -0.28250000
O        0.10910000      -2.69350000       0.03780000
C        1.17120000      -1.90150000       0.19110000
N        1.19230000      -0.62130000       0.19310000
H        0.70020000       1.85780000      -0.76790000
H       -0.95860000       1.95580000      -0.12140000
H        0.44790000       1.85930000       0.97040000
H       -2.13980000      -0.20210000      -0.29080000
H        2.08340000      -2.47750000       0.32390000
