20
Properties=species:S:1:pos:R:3 gdb_82140=T pbc="F F F"
C       -0.16110000       1.64030000       0.09540000
C       -0.05640000       0.12220000       0.02910000
C        0.44900000      -0.49820000      -1.28290000
N        1.84600000      -0.03060000      -1.45940000
C        1.56180000      -1.19720000      -0.58920000
C        1.13100000      -0.63770000       0.77080000
C        2.17140000       0.15420000       1.57240000
C        1.63870000       0.56570000       2.92470000
O        1.51410000       1.69830000       3.31510000
H        0.73440000       2.10880000      -0.31960000
H       -1.02340000       1.98660000      -0.48540000
H       -0.28640000       1.99260000       1.12340000
H       -1.00470000      -0.33700000       0.32420000
H       -0.13920000      -0.81140000      -2.13720000
H        2.17550000      -0.39540000      -2.35230000
H        2.01640000      -2.16060000      -0.78830000
H        0.71660000      -1.43810000       1.39350000
H        3.03610000      -0.50230000       1.75180000
H        2.51480000       1.03260000       1.02420000
H        1.34050000      -0.29390000       3.57370000
