20
Properties=species:S:1:pos:R:3 gdb_112664=T pbc="F F F"
C        0.11970000       1.66980000      -0.05200000
C       -0.04690000       0.14870000      -0.00690000
C        0.61050000      -0.56800000      -1.17640000
C        0.48120000      -2.09840000      -1.17830000
C        0.49400000      -2.43330000      -2.67020000
N       -0.14440000      -3.68820000      -3.03000000
C       -0.13140000      -1.17000000      -3.28540000
O       -0.65520000      -1.06800000      -4.35840000
O       -0.02430000      -0.13830000      -2.41190000
H        1.17750000       1.95310000      -0.02050000
H       -0.31080000       2.07890000      -0.96960000
H       -0.37760000       2.14250000       0.79970000
H        0.38850000      -0.25460000       0.91630000
H       -1.11110000      -0.11660000       0.00380000
H        1.66790000      -0.27530000      -1.24390000
H        1.27390000      -2.58740000      -0.60990000
H       -0.48130000      -2.39240000      -0.74080000
H        1.53290000      -2.46790000      -3.02890000
H       -1.11580000      -3.66710000      -2.72700000
H       -0.18360000      -3.74730000      -4.04520000
