20
Properties=species:S:1:pos:R:3 gdb_111947=T pbc="F F F"
C        0.70730000      -0.33900000      -1.41600000
C        0.03310000       0.01860000      -0.08870000
C       -1.44710000      -0.41170000      -0.01650000
C       -1.64670000      -1.90820000       0.01920000
C       -2.31950000      -2.26400000       1.11300000
C       -2.66070000      -1.04660000       1.90440000
O       -3.29390000      -0.96550000       2.93910000
N       -2.10570000       0.01000000       1.20680000
C       -2.32450000       1.38500000       1.58330000
H        1.73430000       0.03630000      -1.44090000
H        0.75020000      -1.42110000      -1.57470000
H        0.17310000       0.10170000      -2.26510000
H        0.56810000      -0.43820000       0.75160000
H        0.08170000       1.10360000       0.05870000
H       -1.96800000       0.01320000      -0.89240000
H       -1.26550000      -2.55870000      -0.75670000
H       -2.61500000      -3.25360000       1.43100000
H       -2.92820000       1.37420000       2.49310000
H       -1.38460000       1.91050000       1.78960000
H       -2.86410000       1.93620000       0.80190000
