19
Properties=species:S:1:pos:R:3 gdb_73137=T pbc="F F F"
O       -0.10110000       1.33820000       0.50140000
C        0.02000000       0.02940000      -0.01310000
C        0.27320000      -0.14840000      -1.53760000
C       -0.89850000      -1.17170000      -1.58430000
C       -1.32900000      -0.73620000      -0.15020000
C       -1.41410000      -1.78760000       0.97620000
C        0.00650000      -1.90360000       1.49870000
O        0.97360000      -2.20680000       0.47850000
C        0.85050000      -0.84900000       0.91550000
H        0.76180000       1.76480000       0.45020000
H        0.04250000       0.77880000      -2.06860000
H        1.25950000      -0.50610000      -1.84130000
H       -1.64000000      -1.01700000      -2.37100000
H       -0.54830000      -2.20340000      -1.61670000
H       -2.18490000      -0.05960000      -0.16080000
H       -2.06840000      -1.45030000       1.78840000
H       -1.79900000      -2.75070000       0.62350000
H        0.21040000      -2.35130000       2.46870000
H        1.72380000      -0.43320000       1.41710000
