18
Properties=species:S:1:pos:R:3 gdb_39604=T pbc="F F F"
C       -0.01270000       1.53040000       0.01280000
C        1.41760000       2.11170000       0.07240000
O        2.25250000       1.50980000       1.07720000
C        2.23230000       0.14370000       0.84400000
O        3.07050000      -0.62090000       1.71830000
C        2.39470000      -1.81350000       1.77790000
N        1.18980000      -1.87920000       1.37420000
C        0.86150000      -0.46790000       1.07950000
C       -0.05120000      -0.02030000      -0.04900000
H       -0.56250000       1.85940000       0.90230000
H       -0.51910000       1.96630000      -0.85500000
H        1.90510000       1.99460000      -0.90900000
H        1.39160000       3.17650000       0.31190000
H        2.58020000      -0.06470000      -0.18760000
H        2.97350000      -2.63310000       2.18830000
H        0.46800000      -0.03870000       2.01460000
H       -1.07510000      -0.38680000       0.06540000
H        0.32400000      -0.38330000      -1.01370000
