16
Properties=species:S:1:pos:R:3 gdb_16678=T pbc="F F F"
C       -0.16970000       1.63130000       0.04250000
C        0.02680000       0.12510000      -0.00620000
C        0.89530000      -0.59550000      -1.07790000
C        2.27550000       0.08140000      -1.02060000
C        2.37880000       0.09160000       0.52310000
O        3.23540000       0.53280000       1.23590000
C        1.06290000      -0.62080000       0.88260000
O        1.08460000      -1.68980000      -0.11780000
H        0.77320000       2.18440000       0.00530000
H       -0.78950000       1.96610000      -0.79580000
H       -0.68170000       1.91930000       0.96620000
H       -0.92480000      -0.40640000       0.07630000
H        0.50200000      -0.91370000      -2.04280000
H        3.05150000      -0.54190000      -1.47090000
H        2.33670000       1.08760000      -1.44350000
H        0.89580000      -0.93730000       1.91010000
