14
Properties=species:S:1:pos:R:3 gdb_34770=T pbc="F F F"
C       -0.18860000      -1.20580000       0.01680000
C       -0.07950000      -0.00930000       0.03420000
C        0.02190000       1.42020000       0.05140000
C        0.52280000       2.21180000       1.23170000
O        1.52390000       1.49440000       1.95560000
C        2.41740000       1.57660000       0.81530000
C        3.03590000       0.30770000       0.42420000
N        3.59310000      -0.65340000       0.10800000
C        1.32560000       2.21380000      -0.04630000
H       -0.25850000      -2.26530000       0.00310000
H       -0.77360000       1.94430000      -0.47590000
H       -0.03740000       2.97230000       1.76150000
H        3.21710000       2.29460000       1.03230000
H        1.49300000       2.97200000      -0.79780000
