11
Properties=species:S:1:pos:R:3 gdb_132219=T pbc="F F F"
F        0.11670000       0.09540000       0.01600000
C       -0.06330000       1.38810000      -0.01910000
C       -1.21460000       2.03390000       0.13680000
C       -1.21410000       3.49530000       0.06370000
N       -2.28470000       4.16920000       0.20520000
N        0.05250000       4.10000000      -0.17340000
C        1.05510000       3.35690000      -0.30020000
F        2.25420000       3.82090000      -0.51910000
O        1.13060000       2.00480000      -0.24500000
H       -2.13490000       1.49780000       0.31390000
H       -2.07110000       5.16470000       0.12060000
