15
Properties=species:S:1:pos:R:3 gdb_66711=T pbc="F F F"
C       -0.04030000       1.49800000       0.03790000
C        0.09020000       0.01690000      -0.00570000
C        0.60670000      -0.98780000      -1.07350000
C       -0.47440000      -1.92820000      -0.61170000
C        0.87880000      -2.01040000       0.03590000
C        0.37500000      -0.98420000       1.08150000
C        0.58630000      -0.82810000       2.47650000
N        0.79600000      -0.69390000       3.60740000
N       -0.99650000      -0.92520000       0.41940000
H        0.94090000       1.98050000      -0.01690000
H       -0.64940000       1.85580000      -0.79890000
H       -0.52550000       1.80150000       0.97020000
H        1.09920000      -0.86990000      -2.02750000
H       -1.08960000      -2.65760000      -1.12090000
H        1.60950000      -2.80350000       0.08430000
