16
Properties=species:S:1:pos:R:3 gdb_12459=T pbc="F F F"
O        0.00050000      -0.15830000      -0.08520000
C       -0.01630000       1.06050000      -0.07500000
N       -1.09490000       1.78510000       0.36790000
C       -1.45100000       3.13050000      -0.07050000
C       -0.59980000       4.21990000       0.58470000
C        0.85320000       4.13930000       0.21820000
C        1.52080000       3.08490000      -0.25880000
N        1.09340000       1.77920000      -0.51410000
H       -1.85870000       1.16850000       0.59850000
H       -1.38000000       3.21810000      -1.16310000
H       -2.50040000       3.27980000       0.19640000
H       -0.99400000       5.19800000       0.27820000
H       -0.73390000       4.16680000       1.67390000
H        1.43470000       5.04790000       0.33670000
H        2.57030000       3.20620000      -0.50790000
H        1.80780000       1.13790000      -0.82140000
