21
Properties=species:S:1:pos:R:3 gdb_97823=T pbc="F F F"
C       -0.70350000       1.60360000      -0.30800000
C        0.08160000       0.35620000       0.13710000
C        0.86490000      -0.24270000      -0.93940000
C        1.50180000      -0.71630000      -1.84670000
C        2.28010000      -1.30680000      -2.92630000
C        3.82360000      -1.32170000      -2.68710000
C        4.26350000      -2.56860000      -3.41520000
C        3.23730000      -3.36000000      -3.72200000
C        1.91940000      -2.79030000      -3.25650000
H       -0.02540000       2.37720000      -0.67840000
H       -1.40200000       1.35600000      -1.11200000
H       -1.27370000       2.01660000       0.52970000
H        0.74680000       0.62190000       0.96910000
H       -0.61650000      -0.38940000       0.53980000
H        2.10680000      -0.72710000      -3.84190000
H        4.29980000      -0.40630000      -3.05360000
H        4.05500000      -1.38800000      -1.61570000
H        5.30670000      -2.78930000      -3.61340000
H        3.31430000      -4.32590000      -4.20920000
H        1.55630000      -3.31510000      -2.36290000
H        1.12190000      -2.85720000      -4.00390000
