12
Properties=species:S:1:pos:R:3 gdb_5056=T pbc="F F F"
O        0.11540000       0.08060000      -0.71810000
C        0.00190000       1.20650000      -0.26850000
C       -1.27470000       1.85580000       0.02070000
C       -1.49480000       3.18740000       0.19470000
N       -0.67420000       4.24850000      -0.06750000
C        0.61370000       4.17640000      -0.16060000
N        1.47730000       3.18450000       0.22500000
C        1.21590000       1.93010000       0.24060000
H       -2.11550000       1.17510000       0.12520000
H       -2.50090000       3.49270000       0.47620000
H        1.12400000       5.07960000      -0.49280000
H        1.97860000       1.26170000       0.64860000
