19
Properties=species:S:1:pos:R:3 gdb_41954=T pbc="F F F"
C       -0.02400000       1.39660000      -0.15900000
C        1.39680000       1.96130000      -0.02000000
C        2.12600000       1.33140000       1.17790000
C        1.58350000       1.71710000       2.55530000
O        0.24290000       1.27980000       2.72700000
C        0.09880000      -0.10770000       2.45830000
C        0.69290000      -0.50170000       1.09870000
O       -0.03710000      -0.02580000      -0.00550000
O        2.04850000      -0.09590000       1.04660000
H       -0.69670000       1.86360000       0.56830000
H       -0.41770000       1.58450000      -1.16210000
H        1.97290000       1.71820000      -0.91870000
H        1.36070000       3.05250000       0.07120000
H        3.19210000       1.57850000       1.13970000
H        2.23230000       1.26890000       3.32530000
H        1.57740000       2.80280000       2.69300000
H        0.60070000      -0.70620000       3.23650000
H       -0.97280000      -0.32230000       2.48120000
H        0.69410000      -1.59150000       1.00020000
