21
Properties=species:S:1:pos:R:3 gdb_104165=T pbc="F F F"
C        0.27970000       1.52870000       0.13360000
C        0.12060000       0.02880000      -0.03370000
C        0.98660000      -0.61800000      -1.11610000
O        1.14470000      -1.94920000      -0.64680000
C        1.10420000      -1.90620000       0.78730000
C        0.22760000      -3.04780000       1.27980000
C        2.54700000      -1.98700000       1.30960000
O        3.19380000      -3.15230000       0.84150000
O        0.57000000      -0.63940000       1.14650000
H        1.32750000       1.78610000       0.31520000
H       -0.06200000       2.05240000      -0.76520000
H       -0.31330000       1.88400000       0.98030000
H       -0.93700000      -0.21920000      -0.21480000
H        0.51160000      -0.65260000      -2.09990000
H        1.95440000      -0.10130000      -1.20440000
H        0.69630000      -4.00520000       1.04210000
H        0.10610000      -2.97670000       2.36390000
H       -0.75550000      -2.99860000       0.80610000
H        3.07210000      -1.06900000       1.00370000
H        2.55090000      -2.02650000       2.40300000
H        3.06320000      -3.15680000      -0.11500000
