15
Properties=species:S:1:pos:R:3 gdb_98519=T pbc="F F F"
C       -0.11970000       1.39860000      -0.02470000
O       -0.13300000      -0.03040000      -0.17110000
C        0.69890000      -0.52170000      -1.09090000
O        1.44960000       0.13370000      -1.76730000
C        0.62370000      -2.03660000      -1.13230000
C        1.65610000      -2.74560000      -1.91900000
O        1.74490000      -2.68230000      -0.50530000
C       -0.68440000      -2.74740000      -0.93690000
O       -1.76420000      -2.26470000      -1.14530000
H        0.87240000       1.74040000       0.27940000
H       -0.38890000       1.87900000      -0.96810000
H       -0.85780000       1.62100000       0.74470000
H        1.42870000      -3.72730000      -2.33150000
H        2.36180000      -2.12890000      -2.46920000
H       -0.54380000      -3.79930000      -0.60210000
