20
Properties=species:S:1:pos:R:3 gdb_78508=T pbc="F F F"
C       -0.06900000       1.54510000       0.04110000
N        0.09270000       0.09870000       0.01320000
C        0.79020000      -0.51930000      -1.10670000
C        2.32130000      -0.56130000      -0.80130000
O        3.27140000      -0.79200000      -1.77580000
C        2.50360000       0.08560000       0.56980000
C        1.11180000      -0.54680000       0.89410000
C        1.37600000      -1.60720000      -0.25230000
C        1.33570000      -3.09680000      -0.31360000
H        0.84700000       2.12000000      -0.17020000
H       -0.82080000       1.83000000      -0.70300000
H       -0.44410000       1.84610000       1.02520000
H        0.39670000      -0.57110000      -2.11630000
H        3.32260000      -0.01530000      -2.34370000
H        3.29050000      -0.42310000       1.13330000
H        2.62590000       1.17010000       0.66290000
H        0.81590000      -0.75060000       1.92270000
H        0.33570000      -3.48140000      -0.08580000
H        1.61070000      -3.44050000      -1.31610000
H        2.04040000      -3.54860000       0.39390000
