23
Properties=species:S:1:pos:R:3 gdb_73270=T pbc="F F F"
C       -0.06890000       1.52270000       0.04270000
C        0.02950000      -0.00170000       0.01300000
C       -1.29380000      -0.63200000      -0.41200000
C       -1.42230000      -2.11310000      -0.04470000
C       -1.13080000      -2.31210000       1.44650000
C        0.33740000      -1.98470000       1.74830000
C        0.78990000      -0.59530000       1.24560000
C        1.98620000      -0.62720000       0.27110000
O        1.12670000      -0.40740000      -0.86350000
H        0.89780000       1.97580000       0.28170000
H       -0.38810000       1.90030000      -0.93430000
H       -0.79600000       1.85270000       0.79280000
H       -2.11140000      -0.07690000       0.06650000
H       -1.40050000      -0.47980000      -1.49290000
H       -2.42680000      -2.46910000      -0.29740000
H       -0.71520000      -2.70610000      -0.63850000
H       -1.79790000      -1.66950000       2.03820000
H       -1.34170000      -3.34320000       1.75070000
H        0.53370000      -2.06770000       2.82260000
H        0.95290000      -2.75560000       1.26810000
H        0.88350000       0.10740000       2.07720000
H        2.71100000       0.18850000       0.40080000
H        2.53090000      -1.57550000       0.19640000
