15
Properties=species:S:1:pos:R:3 gdb_50898=T pbc="F F F"
O       -0.04370000       1.07630000       1.32290000
C        0.05850000       1.38490000       0.16660000
C        1.39700000       1.66020000      -0.51010000
C        1.27860000       2.74760000      -1.55640000
O        0.37090000       2.83790000      -2.34560000
O        2.31180000       3.60580000      -1.49150000
C        2.27230000       4.67330000      -2.46860000
C        3.45800000       5.49430000      -2.30780000
C        4.42780000       6.19350000      -2.20110000
H       -0.81880000       1.47910000      -0.50530000
H        2.16630000       1.87300000       0.23200000
H        1.67550000       0.73840000      -1.04050000
H        2.21790000       4.23740000      -3.47140000
H        1.35740000       5.25670000      -2.32090000
H        5.28650000       6.81130000      -2.10470000
