17
Properties=species:S:1:pos:R:3 gdb_19924=T pbc="F F F"
C        0.03550000       1.56640000       0.04870000
C        1.59790000       1.36280000       0.04440000
C        1.27510000      -0.04320000       0.49360000
C        1.43300000      -0.85630000       1.54050000
C        0.11660000      -1.50790000       1.84050000
N       -0.85510000      -0.48870000       2.34590000
C       -0.90530000      -0.88920000       0.92630000
C       -0.14180000       0.00420000      -0.03200000
H       -0.31250000       1.94420000       1.01100000
H       -0.38550000       2.15330000      -0.77060000
H        1.99710000       1.41780000      -0.97400000
H        2.20510000       1.98560000       0.70430000
H        2.27710000      -0.89060000       2.21900000
H        0.02920000      -2.52420000       2.21140000
H       -1.60870000      -0.97140000       2.83260000
H       -1.76130000      -1.45970000       0.58190000
H       -0.25650000      -0.32150000      -1.07200000
