19
Properties=species:S:1:pos:R:3 gdb_53937=T pbc="F F F"
C       -0.47120000       0.37670000       0.76010000
C        0.43740000       0.25900000      -0.43410000
O        1.46270000       0.89770000      -0.55140000
C        0.05570000      -0.70170000      -1.58960000
C       -1.38000000      -0.43820000      -2.07730000
O        0.96690000      -0.51280000      -2.63930000
C        0.15460000      -2.15600000      -1.03720000
C        1.35030000      -2.96480000      -1.48000000
O       -0.69280000      -2.58760000      -0.28900000
H        0.06170000       0.85930000       1.58030000
H       -1.33390000       0.99680000       0.48910000
H       -0.85940000      -0.60050000       1.05510000
H       -1.50630000       0.61720000      -2.33330000
H       -1.55870000      -1.02930000      -2.97930000
H       -2.10880000      -0.72770000      -1.31940000
H        1.61370000       0.13130000      -2.30080000
H        2.27540000      -2.43110000      -1.23790000
H        1.33030000      -3.93820000      -0.98910000
H        1.34610000      -3.07910000      -2.56750000
