17
Properties=species:S:1:pos:R:3 gdb_88219=T pbc="F F F"
C        1.08260000       1.24580000      -0.54990000
C        0.19550000       0.10950000      -0.11150000
N        0.85270000      -1.11230000       0.35380000
C        0.06490000      -0.31010000       1.32590000
C        0.78000000       0.33950000       2.38540000
C        1.34920000       0.90010000       3.28960000
C        1.98630000       1.57810000       4.40800000
N        3.35110000       1.59920000       4.33180000
O        1.35820000       2.09140000       5.31400000
H        1.95800000       1.32290000       0.09810000
H        1.42700000       1.08530000      -1.57680000
H        0.53940000       2.19560000      -0.51600000
H       -0.71850000      -0.01080000      -0.69250000
H        0.31650000      -1.93570000       0.09220000
H       -0.90850000      -0.69850000       1.61820000
H        3.84060000       1.05270000       3.64440000
H        3.85870000       1.96760000       5.11990000
