23
Properties=species:S:1:pos:R:3 gdb_60855=T pbc="F F F"
C       -0.03210000       1.66330000      -0.01820000
C        0.03670000       0.13390000      -0.13270000
C        0.84760000      -0.28230000      -1.34620000
O        0.57240000      -1.20770000      -2.06770000
C        0.59540000      -0.55710000       1.13960000
C        2.01370000      -0.10500000       1.50640000
C       -0.36190000      -0.51320000       2.37770000
C       -0.13710000      -2.03520000       2.58230000
C        0.46530000      -2.11610000       1.15490000
H        0.96510000       2.11490000      -0.00280000
H       -0.57780000       2.09560000      -0.86260000
H       -0.54740000       1.96060000       0.90000000
H       -0.97030000      -0.26770000      -0.29330000
H        1.76120000       0.33040000      -1.53560000
H        2.06010000       0.96910000       1.71250000
H        2.35690000      -0.62280000       2.40790000
H        2.73260000      -0.32980000       0.71090000
H       -0.07380000       0.15260000       3.19620000
H       -1.39260000      -0.28280000       2.09210000
H        0.59670000      -2.25030000       3.36310000
H       -1.02510000      -2.64000000       2.77750000
H       -0.25120000      -2.47450000       0.41190000
H        1.39240000      -2.68260000       1.03310000
