19
Properties=species:S:1:pos:R:3 gdb_69724=T pbc="F F F"
C       -0.02840000       1.51930000       0.05350000
C       -0.00520000       0.01140000       0.01500000
C       -0.88340000      -0.81280000       0.93090000
C        0.62230000      -0.85520000       1.09560000
C        1.38620000      -1.87290000       0.27120000
C        0.56510000      -2.23370000      -1.00200000
O        1.78340000      -2.35630000      -1.81220000
C        1.98500000      -1.15990000      -0.99470000
C        0.50180000      -0.69640000      -1.23460000
H        0.93160000       1.94180000      -0.26600000
H       -0.80370000       1.92590000      -0.60670000
H       -0.23200000       1.88530000       1.06510000
H       -1.43590000      -0.26520000       1.68840000
H       -1.40950000      -1.68370000       0.55340000
H        1.07460000      -0.42140000       1.98050000
H        1.96800000      -2.66110000       0.74760000
H       -0.20700000      -2.99090000      -1.14170000
H        2.92110000      -0.61210000      -1.11510000
H        0.22460000      -0.33480000      -2.22480000
