16
Properties=species:S:1:pos:R:3 gdb_44158=T pbc="F F F"
O        0.30180000       0.03160000       0.29810000
C        0.12680000       1.20470000       0.20650000
C       -1.09650000       2.13070000       0.10270000
C       -0.07170000       3.25900000       0.00830000
C        0.90710000       3.26040000       1.10490000
C        0.61960000       2.87140000       2.55030000
C        1.82380000       2.45860000       3.26310000
C        2.82530000       2.13340000       3.84030000
N        1.10960000       2.26110000       0.00900000
H       -1.63430000       1.95990000      -0.83350000
H       -1.81230000       2.13360000       0.92810000
H       -0.09950000       4.04420000      -0.73780000
H        1.67410000       4.02750000       1.03090000
H        0.17930000       3.74530000       3.04900000
H       -0.13110000       2.07620000       2.60770000
H        3.70670000       1.83100000       4.34960000
