18
Properties=species:S:1:pos:R:3 gdb_81915=T pbc="F F F"
C       -0.58490000       1.44130000      -0.00110000
C        0.02180000       0.04490000      -0.02920000
C        0.90490000      -0.33240000      -1.24980000
O        1.69050000       0.74700000      -1.73230000
C        1.83450000      -1.40250000      -0.66380000
C        3.03070000      -0.95400000       0.09260000
N        1.79770000      -1.33630000       0.80790000
C        0.94750000      -0.24620000       1.16140000
O        0.96480000       0.32100000       2.21920000
H        0.19120000       2.20420000      -0.10740000
H       -1.32520000       1.57650000      -0.79680000
H       -1.07620000       1.61180000       0.95960000
H       -0.77500000      -0.71100000       0.02510000
H        0.30110000      -0.75700000      -2.06160000
H        1.09690000       1.41350000      -2.09330000
H        1.80790000      -2.39810000      -1.09480000
H        3.86610000      -1.63210000       0.23720000
H        3.28560000       0.09950000       0.05150000
