19
Properties=species:S:1:pos:R:3 gdb_90258=T pbc="F F F"
C       -0.01280000       1.54650000       0.04800000
C        0.05410000       0.02640000       0.01830000
C        1.08980000      -0.62800000      -0.97790000
C        1.90260000      -1.04940000       0.23240000
O        2.78660000      -2.14490000       0.38180000
C        3.56060000      -1.40900000       1.37820000
C        2.74480000      -0.11890000       1.11890000
O        1.65690000       0.14720000       2.02410000
C        0.77230000      -0.67840000       1.22540000
H        0.97260000       1.99050000       0.21400000
H       -0.40480000       1.93330000      -0.89820000
H       -0.66700000       1.89450000       0.85360000
H       -0.94800000      -0.38810000      -0.12120000
H        0.66330000      -1.48270000      -1.51050000
H        1.58090000       0.02850000      -1.70200000
H        3.44270000      -1.81870000       2.38660000
H        4.61970000      -1.37430000       1.10190000
H        3.28410000       0.77880000       0.80940000
H        0.18090000      -1.37000000       1.82830000
