15
Properties=species:S:1:pos:R:3 gdb_133046=T pbc="F F F"
C        0.06030000       1.43690000       0.09020000
N       -0.04770000       0.01060000      -0.11680000
C       -1.23090000      -0.67480000      -0.03980000
N       -1.14350000      -2.01570000      -0.00240000
C       -2.27810000      -2.70300000       0.03670000
C       -3.50770000      -2.05110000       0.04350000
F       -4.63210000      -2.76550000       0.08200000
N       -3.62110000      -0.74400000       0.01950000
C       -2.49010000      -0.04190000      -0.01970000
H        1.11240000       1.72120000       0.03170000
H       -0.47530000       1.99050000      -0.69000000
H       -0.33110000       1.76070000       1.06630000
H        0.76420000      -0.56030000       0.05530000
H       -2.22000000      -3.78720000       0.06720000
H       -2.58510000       1.03850000      -0.03640000
