23
Properties=species:S:1:pos:R:3 gdb_39214=T pbc="F F F"
C       -0.08800000       1.48300000       0.07190000
C        1.28920000       0.85030000       0.03540000
C        2.19960000       0.89650000       1.26180000
C        2.59220000      -0.46100000       1.87520000
C        1.41780000      -1.36960000       2.29990000
C        0.73580000      -2.14090000       1.13220000
C       -0.32760000      -1.00430000       1.05070000
C        0.05840000      -0.63670000       2.51280000
C        0.04570000      -0.01250000      -0.03190000
H       -0.40610000       1.90130000       1.02230000
H       -0.44420000       2.03430000      -0.79200000
H        1.81960000       0.94380000      -0.90850000
H        3.11770000       1.43060000       0.99090000
H        1.73440000       1.50670000       2.04370000
H        3.23050000      -1.01830000       1.17650000
H        3.21680000      -0.25240000       2.75310000
H        1.74260000      -2.00180000       3.13130000
H        1.33240000      -2.32420000       0.23300000
H        0.30610000      -3.08820000       1.47160000
H       -1.36560000      -1.32330000       0.90910000
H       -0.57430000      -1.18120000       3.21930000
H        0.06490000       0.41400000       2.81060000
H       -0.15430000      -0.41710000      -1.02290000
