19
Properties=species:S:1:pos:R:3 gdb_90000=T pbc="F F F"
C        0.27840000       1.58030000      -0.07360000
C       -0.03910000       0.09950000       0.13210000
O        0.35410000      -0.65300000      -1.02600000
C        1.23260000      -1.70470000      -0.67630000
C        0.87310000      -3.11090000      -1.23380000
O        2.17430000      -3.24400000      -1.83770000
C        2.49100000      -1.86420000      -1.57180000
C        1.43050000      -1.56820000       0.80190000
C        0.70730000      -0.55550000       1.26380000
H        1.35600000       1.72980000      -0.18730000
H       -0.22260000       1.94970000      -0.97270000
H       -0.06960000       2.17030000       0.78080000
H       -1.12770000      -0.01270000       0.26470000
H        0.66770000      -3.90640000      -0.50820000
H        0.06610000      -3.06610000      -1.97650000
H        2.43810000      -1.23800000      -2.47180000
H        3.47020000      -1.74610000      -1.09330000
H        2.07600000      -2.22950000       1.36600000
H        0.63790000      -0.21580000       2.28950000
