18
Properties=species:S:1:pos:R:3 gdb_7079=T pbc="F F F"
C        0.03840000       1.60030000      -0.15620000
C       -0.00080000       0.07650000       0.03270000
C       -1.45160000      -0.44540000       0.08050000
C       -2.20870000       0.06380000       1.28760000
O       -3.27790000       0.61460000       1.25550000
C        0.79950000      -0.64600000      -1.07020000
C        2.27930000      -0.33610000      -1.00680000
O        2.94660000       0.05770000      -1.92730000
H        1.06580000       1.97690000      -0.16080000
H       -0.42310000       1.88360000      -1.10860000
H       -0.50420000       2.11680000       0.64150000
H        0.47070000      -0.16540000       0.99740000
H       -2.00600000      -0.17360000      -0.82340000
H       -1.43790000      -1.54290000       0.15300000
H       -1.68790000      -0.11830000       2.25870000
H        0.69620000      -1.73300000      -0.93770000
H        0.42870000      -0.39080000      -2.06800000
H        2.73590000      -0.51030000      -0.00260000
