23
Properties=species:S:1:pos:R:3 gdb_122430=T pbc="F F F"
O       -0.10120000       1.43720000      -0.17860000
C        0.00490000       0.03380000       0.01200000
C       -1.39650000      -0.55840000      -0.05050000
C       -1.41560000      -2.07770000       0.14830000
C       -2.81570000      -2.67340000       0.07590000
C       -3.55570000      -2.70090000      -1.29460000
C       -4.10550000      -4.09110000      -0.92390000
O       -4.14460000      -4.99910000      -2.00080000
C       -2.97770000      -4.21910000       0.13730000
H        0.78350000       1.81240000      -0.14780000
H        0.63790000      -0.42700000      -0.76440000
H        0.46500000      -0.20200000       0.98620000
H       -2.01310000      -0.07020000       0.71470000
H       -1.83920000      -0.29810000      -1.01950000
H       -0.78460000      -2.55810000      -0.61280000
H       -0.96660000      -2.32780000       1.12010000
H       -3.45320000      -2.20100000       0.83280000
H       -4.26930000      -1.90820000      -1.52880000
H       -2.84540000      -2.80090000      -2.12220000
H       -5.08930000      -4.00830000      -0.43880000
H       -4.49860000      -5.83440000      -1.67940000
H       -2.11220000      -4.72310000      -0.30580000
H       -3.21230000      -4.68150000       1.10000000
