14
Properties=species:S:1:pos:R:3 gdb_125477=T pbc="F F F"
C       -0.01970000       1.47870000       0.02030000
C       -0.00260000      -0.01090000      -0.03300000
N       -0.05230000      -0.72020000      -1.13310000
C       -0.00960000      -2.02950000      -0.68640000
N       -0.02350000      -3.21960000      -1.24510000
O        0.04830000      -4.08800000      -0.15170000
C        0.10260000      -3.40660000       1.02470000
C        0.06840000      -2.08550000       0.73590000
N        0.07090000      -0.76480000       1.13570000
H        0.89110000       1.86870000       0.48820000
H       -0.08900000       1.86780000      -0.99510000
H       -0.87410000       1.84480000       0.60020000
H        0.15940000      -4.01150000       1.91370000
H        0.11780000      -0.39800000       2.06970000
