18
Properties=species:S:1:pos:R:3 gdb_5639=T pbc="F F F"
C       -0.03640000       1.57630000      -0.00340000
C        0.02580000       0.04630000      -0.02160000
N        0.71300000      -0.48790000      -1.18710000
C        0.12330000      -0.85650000      -2.36470000
N        0.99550000      -1.25150000      -3.26110000
C        2.21580000      -1.13030000      -2.63910000
C        2.07830000      -0.66000000      -1.35680000
C        3.08580000      -0.38470000      -0.29250000
H        0.96600000       2.01300000       0.01630000
H       -0.55220000       1.95220000      -0.89150000
H       -0.57710000       1.92170000       0.88320000
H        0.52660000      -0.32610000       0.87730000
H       -0.98540000      -0.37220000      -0.01700000
H       -0.94920000      -0.81840000      -2.49400000
H        3.13460000      -1.39570000      -3.14180000
H        3.11020000       0.66990000       0.00860000
H        2.90970000      -0.97750000       0.61400000
H        4.08080000      -0.64250000      -0.66290000
