17
Properties=species:S:1:pos:R:3 gdb_80051=T pbc="F F F"
C       -0.04410000       1.53430000       0.07550000
C       -0.06040000       0.04040000       0.08850000
C        0.13330000      -0.97190000       1.16130000
C       -0.61980000      -2.03440000       0.30450000
N        0.40500000      -2.72170000      -0.49870000
C        1.36000000      -1.88430000      -0.55580000
N        1.25410000      -0.69210000       0.24130000
C       -1.13100000      -0.83670000      -0.58040000
O       -2.38300000      -0.32750000      -0.17920000
H        0.68120000       1.91840000       0.79690000
H        0.22890000       1.91170000      -0.91630000
H       -1.03810000       1.91710000       0.32350000
H        0.27290000      -0.88380000       2.23300000
H       -1.36780000      -2.69610000       0.73620000
H        2.25740000      -2.02360000      -1.14980000
H       -1.07840000      -0.99900000      -1.66570000
H       -3.06140000      -0.94510000      -0.47120000
