21
Properties=species:S:1:pos:R:3 gdb_111925=T pbc="F F F"
C        0.29140000       0.96970000       0.64480000
O       -0.11320000       0.19170000      -0.46940000
C       -1.35960000      -0.47130000      -0.28390000
C       -1.89220000      -0.96000000      -1.60130000
C       -2.32560000      -2.22090000      -1.54420000
C       -2.95260000      -3.01350000      -2.64590000
C       -2.14280000      -2.79760000      -0.15620000
C       -1.21420000      -1.78820000       0.55820000
O        0.12790000      -2.23680000       0.53210000
H        1.21510000       1.47930000       0.36050000
H       -0.46840000       1.72300000       0.89850000
H        0.48410000       0.34760000       1.52880000
H       -2.05890000       0.22830000       0.20320000
H       -1.93110000      -0.31450000      -2.47150000
H       -3.01340000      -2.44190000      -3.57570000
H       -2.38020000      -3.92930000      -2.84030000
H       -3.96650000      -3.33460000      -2.37450000
H       -3.11130000      -2.88780000       0.35580000
H       -1.68860000      -3.79470000      -0.15870000
H       -1.50770000      -1.64140000       1.60460000
H        0.60490000      -1.61630000      -0.03680000
