20
Properties=species:S:1:pos:R:3 gdb_99753=T pbc="F F F"
C        0.35670000       1.35410000       0.24330000
N       -0.18620000       0.07430000       0.69660000
H        0.24310000      -1.69290000       0.12880000
C       -0.17890000      -0.02190000       2.15730000
C       -1.49880000      -0.30490000       0.15380000
C       -1.76300000       0.17750000      -1.28820000
O       -0.76080000      -0.20510000      -2.21130000
C       -1.59800000      -1.84410000       0.12030000
O       -0.39630000      -2.43640000       0.01990000
O       -2.63660000      -2.44650000       0.09120000
H        1.33920000       1.49410000       0.70280000
H        0.48500000       1.34180000      -0.83910000
H       -0.27120000       2.21510000       0.52890000
H       -0.83240000       0.73000000       2.63130000
H       -0.51820000      -1.01320000       2.47130000
H        0.83890000       0.12340000       2.52980000
H       -2.33270000       0.06530000       0.77030000
H       -2.75360000      -0.20010000      -1.57390000
H       -1.80150000       1.26920000      -1.31750000
H       -0.75760000      -1.16590000      -2.28610000
