15
Properties=species:S:1:pos:R:3 gdb_48328=T pbc="F F F"
O       -0.41950000       0.09400000      -0.59560000
C        0.20660000       0.62710000       0.29120000
C        1.12350000       1.77490000       0.06760000
C        1.42130000       2.13680000      -1.34670000
O        2.09770000       3.09110000      -1.66060000
C        1.23350000       2.98890000       1.02630000
C        1.03670000       2.55400000       2.47290000
O        2.07170000       1.53260000       2.32010000
C        2.33530000       2.00680000       1.01330000
H        0.14830000       0.25960000       1.33380000
H        0.98620000       1.44870000      -2.09410000
H        1.17810000       3.98180000       0.60420000
H        1.36810000       3.31610000       3.18460000
H        0.07460000       2.13970000       2.78560000
H        3.34770000       2.01440000       0.63040000
