22
Properties=species:S:1:pos:R:3 gdb_100074=T pbc="F F F"
C       -0.19400000       1.52350000       0.03270000
C        0.06980000       0.02190000       0.03370000
O        1.20450000      -0.42310000       0.07920000
N       -1.04750000      -0.75880000      -0.01250000
C       -1.06220000      -2.23350000      -0.00420000
C       -0.32720000      -2.78670000      -1.23700000
C       -0.43720000      -2.77230000       1.29390000
C       -2.55300000      -2.61600000      -0.06720000
O       -2.66050000      -4.02550000      -0.06250000
H        0.39190000       1.97880000      -0.76950000
H       -1.24560000       1.79380000      -0.09550000
H        0.16550000       1.94280000       0.97670000
H       -1.93750000      -0.28860000      -0.04220000
H        0.72450000      -2.50120000      -1.20450000
H       -0.41090000      -3.87530000      -1.25940000
H       -0.76870000      -2.38790000      -2.15650000
H       -0.95790000      -2.36520000       2.16720000
H       -0.52070000      -3.86090000       1.32070000
H        0.61300000      -2.48480000       1.35040000
H       -3.07200000      -2.17300000       0.79990000
H       -2.99370000      -2.18450000      -0.98190000
H       -3.59140000      -4.26000000      -0.10530000
