25
Properties=species:S:1:pos:R:3 gdb_57569=T pbc="F F F"
C        0.12940000       1.66990000       0.15370000
C        0.09520000       0.12970000       0.16420000
C        0.79250000      -0.36490000       1.44590000
C       -1.37330000      -0.30600000       0.07220000
C       -1.89960000      -1.63020000       0.56480000
C       -2.32160000      -0.34750000       1.24330000
C        0.82140000      -0.49610000      -1.03420000
C        0.83220000       0.09110000      -2.42280000
C        2.10860000       0.03000000      -1.61620000
H        1.15270000       2.05660000       0.19040000
H       -0.36070000       2.08340000      -0.73310000
H       -0.40150000       2.05740000       1.02870000
H        0.31000000       0.02170000       2.34920000
H        0.80770000      -1.45740000       1.50720000
H        1.83250000      -0.02440000       1.45580000
H       -1.82620000       0.03240000      -0.85750000
H       -2.62290000      -2.15500000      -0.05000000
H       -1.23330000      -2.28650000       1.11330000
H       -1.93160000      -0.15950000       2.23740000
H       -3.33520000       0.00950000       1.09580000
H        0.75170000      -1.58170000      -1.01290000
H        0.71710000      -0.58260000      -3.26510000
H        0.39060000       1.06860000      -2.58080000
H        2.50570000       0.96720000      -1.24240000
H        2.87180000      -0.68510000      -1.90410000
