16
Properties=species:S:1:pos:R:3 gdb_33673=T pbc="F F F"
N       -0.07350000      -1.14130000       0.07300000
C       -0.04890000       0.01590000       0.02950000
C        0.00220000       1.43170000      -0.00750000
C       -0.73270000       2.50800000       0.80610000
C        0.58050000       3.24830000       1.06570000
C        1.23820000       2.38680000      -0.06150000
O        1.20110000       3.02600000      -1.31710000
C       -0.17810000       3.26330000      -1.62800000
C       -0.97210000       2.36870000      -0.68140000
H       -1.53280000       2.34350000       1.51710000
H        0.60660000       4.33170000       0.91770000
H        0.98910000       3.00270000       2.04900000
H        2.23470000       1.98460000       0.10720000
H       -0.42250000       4.32500000      -1.49270000
H       -0.34780000       2.99980000      -2.67690000
H       -1.93300000       1.97780000      -0.99210000
