18
Properties=species:S:1:pos:R:3 gdb_62265=T pbc="F F F"
O       -0.03790000       1.44520000      -0.12750000
C        0.01620000       0.04780000      -0.02800000
C        0.58540000      -0.58400000      -1.30890000
C       -0.25100000      -0.20470000      -2.52410000
O        0.30650000      -0.84980000      -3.66650000
C        0.18790000      -0.22140000      -4.85210000
N        0.55000000      -0.80100000      -5.91270000
C        0.84130000      -0.36290000       1.17540000
O        1.34620000       0.45630000       1.90370000
H        0.46640000       1.78160000       0.63080000
H       -0.99850000      -0.36310000       0.13800000
H        1.61490000      -0.24160000      -1.45960000
H        0.60630000      -1.67540000      -1.21000000
H       -1.29090000      -0.53520000      -2.39330000
H       -0.25230000       0.88350000      -2.65160000
H       -0.22480000       0.79410000      -4.76880000
H        0.41740000      -0.18050000      -6.70850000
H        0.95580000      -1.45200000       1.34840000
