19
Properties=species:S:1:pos:R:3 gdb_86225=T pbc="F F F"
C        0.31540000       1.37170000      -0.20260000
C        0.18010000      -0.10560000       0.12190000
C        0.26580000      -1.07500000      -1.08830000
C        1.43760000      -2.03640000      -0.74170000
N        2.74350000      -1.69700000      -1.30510000
C        1.52600000      -1.85250000       0.79110000
O        1.27050000      -0.47740000       0.99240000
C        0.55370000      -2.70320000       1.51280000
N       -0.21480000      -3.36540000       2.06620000
H        1.23730000       1.56440000      -0.76090000
H       -0.53220000       1.70460000      -0.80930000
H        0.33640000       1.96630000       0.71460000
H       -0.75960000      -0.27780000       0.66430000
H       -0.67190000      -1.62180000      -1.21570000
H        0.47220000      -0.54510000      -2.02210000
H        1.20960000      -3.07010000      -1.01160000
H        2.70370000      -1.74110000      -2.31890000
H        2.97430000      -0.73560000      -1.06700000
H        2.53070000      -2.07280000       1.15910000
