14
Properties=species:S:1:pos:R:3 gdb_27391=T pbc="F F F"
N        0.02400000       1.32280000       0.12350000
C        0.05890000      -0.03230000       0.04360000
N       -1.11050000      -0.70530000       0.02880000
H       -2.00630000      -0.24350000       0.08420000
C       -1.15760000      -2.12340000      -0.00660000
N       -2.31970000      -2.64860000      -0.01150000
N        0.06710000      -2.74970000      -0.02910000
C        1.13210000      -1.99130000      -0.01120000
O        2.32440000      -2.59590000      -0.02960000
N        1.22410000      -0.63800000       0.01770000
H        0.90900000       1.77940000      -0.03020000
H       -0.80320000       1.82400000      -0.15370000
H       -2.22070000      -3.66170000      -0.03540000
H        2.13600000      -3.54500000      -0.05310000
