21
Properties=species:S:1:pos:R:3 gdb_95407=T pbc="F F F"
C       -0.33560000       1.43430000       0.02450000
C        0.03880000      -0.04440000       0.02790000
O        0.64930000      -0.32360000      -1.23580000
C        0.49160000      -1.64010000      -1.69980000
C        1.02770000      -2.75210000      -0.84320000
C        1.54420000      -2.72780000       0.39700000
C        2.08960000      -4.00050000       1.00990000
C        1.62470000      -1.55450000       1.27640000
C        0.96740000      -0.39470000       1.16440000
H        0.56110000       2.04870000      -0.10250000
H       -1.02190000       1.65260000      -0.79690000
H       -0.81530000       1.71190000       0.96820000
H       -0.88000000      -0.64880000       0.11530000
H       -0.56980000      -1.85370000      -1.93170000
H        1.01740000      -1.66300000      -2.66440000
H        1.00050000      -3.71380000      -1.35580000
H        3.15210000      -3.88880000       1.26050000
H        1.57130000      -4.24430000       1.94550000
H        1.99000000      -4.85260000       0.33350000
H        2.27170000      -1.68200000       2.14260000
H        1.12460000       0.37060000       1.92070000
