17
Properties=species:S:1:pos:R:3 gdb_85395=T pbc="F F F"
C       -0.01350000       1.46610000       0.00220000
N       -0.01320000       0.01230000       0.02630000
C       -1.35430000      -0.53810000      -0.06340000
C       -1.35230000      -2.05670000      -0.12440000
O       -2.23640000      -2.70600000      -0.62970000
N       -0.26030000      -2.66320000       0.48350000
C        0.78100000      -2.03510000       1.15510000
O        1.65280000      -2.66660000       1.70250000
C        0.70560000      -0.51720000       1.17190000
H        1.01700000       1.83360000       0.00070000
H       -0.50280000       1.81820000      -0.91070000
H       -0.53730000       1.91290000       0.86810000
H       -2.00030000      -0.24530000       0.79160000
H       -1.84720000      -0.18270000      -0.97120000
H       -0.24040000      -3.67640000       0.46750000
H        1.73320000      -0.14650000       1.17580000
H        0.25130000      -0.22240000       2.14190000
