17
Properties=species:S:1:pos:R:3 gdb_130460=T pbc="F F F"
N       -1.45120000       1.08300000      -0.41560000
H       -2.66410000      -0.47940000      -0.27990000
H       -0.68720000       1.03570000      -1.08140000
H       -2.05310000       1.84260000      -0.72060000
C       -0.93700000       1.35230000       0.93750000
C       -1.95640000       1.04300000       2.03730000
O       -2.05120000      -0.34890000       2.36530000
C       -2.96500000      -1.09900000       1.71700000
C       -3.82920000      -2.06360000       2.18170000
N       -4.50090000      -2.57630000       1.11340000
N       -4.10630000      -1.98000000       0.02160000
N       -3.16130000      -1.08360000       0.37870000
H       -0.05900000       0.72110000       1.10600000
H       -0.61570000       2.39740000       1.06660000
H       -1.62960000       1.52810000       2.96180000
H       -2.94840000       1.43380000       1.77590000
H       -3.99350000      -2.40440000       3.18990000
