21
Properties=species:S:1:pos:R:3 gdb_119460=T pbc="F F F"
C       -0.10270000       1.51630000      -0.00570000
C        0.11480000       0.01980000       0.07760000
O        1.16560000      -0.47040000      -0.81160000
C        1.76620000      -1.19940000       0.27430000
C        2.27620000      -2.57480000      -0.01560000
C        3.45980000      -2.55780000      -0.98090000
O        3.85210000      -3.90480000      -1.19930000
C        2.27350000      -0.23410000       1.30330000
C        0.80370000      -0.61770000       1.28480000
H        0.79430000       2.07030000       0.28300000
H       -0.36890000       1.80330000      -1.02810000
H       -0.92380000       1.81370000       0.65550000
H       -0.81710000      -0.51140000      -0.15840000
H        2.58450000      -3.05490000       0.91980000
H        1.47780000      -3.18590000      -0.45150000
H        3.15680000      -2.06750000      -1.91760000
H        4.28110000      -1.96520000      -0.54740000
H        4.55390000      -3.90940000      -1.85640000
H        2.83250000      -0.67360000       2.12390000
H        2.60270000       0.75670000       1.00410000
H        0.30530000      -1.07850000       2.12740000
