17
Properties=species:S:1:pos:R:3 gdb_46109=T pbc="F F F"
O       -0.00060000       0.68400000       1.28660000
C       -0.06850000       1.53790000       0.45280000
C       -1.26370000       1.93200000      -0.41280000
C       -0.88370000       3.31290000      -0.96140000
C       -1.40810000       4.45000000      -0.05290000
C       -1.02810000       5.77520000      -0.52540000
C       -0.69720000       6.85330000      -0.94160000
C        0.65440000       3.22220000      -0.94800000
O        0.98880000       2.33520000       0.13280000
H       -1.36250000       1.18880000      -1.21160000
H       -2.18260000       1.90610000       0.17570000
H       -1.25030000       3.47830000      -1.97660000
H       -2.50100000       4.37960000       0.00890000
H       -1.03360000       4.30210000       0.96910000
H       -0.41570000       7.81450000      -1.29470000
H        1.04500000       2.80110000      -1.88140000
H        1.14110000       4.18160000      -0.76250000
