21
Properties=species:S:1:pos:R:3 gdb_94724=T pbc="F F F"
C       -0.22950000       1.56790000       0.20360000
C        0.10840000       0.10160000       0.04400000
C       -1.07630000      -0.91220000       0.14740000
C       -0.36670000      -1.62550000       1.33290000
C        0.84320000      -0.65770000       1.19970000
C        2.09320000      -1.23490000       0.52570000
O        2.38890000      -2.53060000       1.01650000
C        1.71400000      -1.19870000      -0.97120000
O        0.90810000      -0.04690000      -1.13220000
H        0.68290000       2.16690000       0.28460000
H       -0.79600000       1.92300000      -0.66370000
H       -0.83660000       1.73120000       1.09910000
H       -2.03970000      -0.45500000       0.38670000
H       -1.19850000      -1.51630000      -0.75500000
H       -0.89020000      -1.53260000       2.28650000
H       -0.11940000      -2.67660000       1.17880000
H        1.08500000      -0.08000000       2.09320000
H        2.93910000      -0.55380000       0.70000000
H        3.20900000      -2.82680000       0.60990000
H        2.57180000      -1.10740000      -1.64490000
H        1.17310000      -2.12580000      -1.22300000
