22
Properties=species:S:1:pos:R:3 gdb_79469=T pbc="F F F"
C       -0.18950000       1.59660000      -0.02880000
C        0.05060000       0.09930000       0.04580000
N        1.08890000      -0.50720000      -0.85640000
C        2.47290000      -0.23040000      -0.20410000
C        2.65980000      -1.75920000      -0.09600000
C        1.14760000      -1.69170000       0.10790000
C        0.76400000      -0.62240000       1.22430000
C        0.07460000      -0.97050000       2.52270000
C        2.10530000       0.13670000       1.25230000
H        0.72750000       2.18010000       0.08510000
H       -0.62200000       1.85190000      -1.00160000
H       -0.89450000       1.91710000       0.74640000
H       -0.88680000      -0.42370000      -0.18660000
H        3.15560000       0.40910000      -0.76180000
H        2.89600000      -2.22320000      -1.05570000
H        3.30730000      -2.14640000       0.69410000
H        0.46210000      -2.52480000      -0.06020000
H        0.71610000      -1.58630000       3.16320000
H       -0.18500000      -0.06840000       3.08930000
H       -0.85180000      -1.52800000       2.34460000
H        2.82170000      -0.27160000       1.97140000
H        1.99570000       1.20390000       1.45450000
