16
Properties=species:S:1:pos:R:3 gdb_44698=T pbc="F F F"
N        0.14050000       1.07840000       0.47340000
C        0.03940000      -0.09610000       0.05150000
O        0.97970000      -0.93980000      -0.50910000
C       -0.01190000      -2.00570000      -0.69330000
C        0.24580000      -3.19710000       0.20990000
C       -0.43210000      -2.86010000       1.54950000
O       -0.20450000      -3.39280000       2.60090000
C       -1.47050000      -1.75010000       1.31380000
C       -1.09370000      -1.10140000      -0.02150000
H        1.09050000       1.43780000       0.36640000
H       -0.11900000      -2.23640000      -1.75360000
H       -0.23380000      -4.09920000      -0.19130000
H        1.30660000      -3.41870000       0.34350000
H       -2.45910000      -2.22220000       1.26150000
H       -1.48660000      -1.05200000       2.15300000
H       -1.94230000      -0.78850000      -0.62830000
