15
Properties=species:S:1:pos:R:3 gdb_28349=T pbc="F F F"
C       -0.02420000       1.52270000       0.01210000
C       -0.04960000       0.02010000       0.00020000
C       -1.17950000      -0.73060000      -0.15060000
C       -1.17270000      -2.15040000      -0.15770000
C        0.03180000      -2.75530000      -0.00530000
O        0.20460000      -4.08010000       0.00980000
O        1.16680000      -2.07500000       0.14470000
C        1.22410000      -0.64080000       0.16180000
O        2.31290000      -0.15730000       0.30650000
H        0.61530000       1.91320000      -0.78700000
H       -1.03010000       1.93040000      -0.11590000
H        0.39010000       1.90330000       0.95200000
H       -2.13210000      -0.22210000      -0.27110000
H       -2.06750000      -2.74250000      -0.27630000
H        1.14760000      -4.25610000       0.13010000
