20
Properties=species:S:1:pos:R:3 gdb_11955=T pbc="F F F"
C        0.16220000       1.46630000       0.23070000
C       -0.13940000      -0.00640000      -0.07980000
C        0.56270000      -0.51110000      -1.30960000
C        2.01690000      -0.95060000      -1.30610000
C        0.94990000      -1.92450000      -1.72810000
O        0.70350000      -3.09930000      -1.03590000
C        0.51550000      -1.66500000      -3.17290000
C        0.16170000      -0.19530000      -2.76150000
H        1.23270000       1.61990000       0.40200000
H       -0.13650000       2.11550000      -0.59940000
H       -0.37510000       1.79980000       1.12400000
H        0.14620000      -0.63180000       0.77490000
H       -1.22270000      -0.13790000      -0.20430000
H        2.73310000      -0.54480000      -2.01910000
H        2.42090000      -1.14200000      -0.31600000
H        1.48110000      -3.66360000      -1.10650000
H        1.27390000      -1.80260000      -3.95170000
H       -0.37470000      -2.24000000      -3.43790000
H       -0.90360000       0.02390000      -2.87280000
H        0.73580000       0.59560000      -3.25500000
