18
Properties=species:S:1:pos:R:3 gdb_101291=T pbc="F F F"
O       -0.43360000       1.35330000       0.04520000
C       -0.88930000       0.05770000       0.44330000
C       -1.35190000      -0.71650000      -0.79530000
O       -0.32810000      -0.67950000      -1.77790000
C       -1.66180000      -2.18140000      -0.54070000
N       -1.44800000      -2.73130000       0.79950000
C       -2.82950000      -2.65650000       0.26700000
C       -3.75330000      -1.75970000       0.90720000
C       -4.55990000      -1.02310000       1.41080000
H       -1.20770000       1.88600000      -0.16670000
H       -0.02710000      -0.44610000       0.88490000
H       -1.68010000       0.11570000       1.19800000
H       -2.26550000      -0.23140000      -1.18760000
H        0.06300000       0.20160000      -1.69780000
H       -1.40290000      -2.80260000      -1.39570000
H       -1.11220000      -3.68950000       0.75250000
H       -3.28130000      -3.58770000      -0.06910000
H       -5.26740000      -0.37750000       1.86960000
