19
Properties=species:S:1:pos:R:3 gdb_105660=T pbc="F F F"
O        0.06150000       1.25450000      -0.45640000
C       -0.09450000      -0.12700000      -0.20680000
C       -1.56500000      -0.51660000       0.04110000
C       -2.42510000      -0.43020000      -1.26480000
C       -2.20510000      -1.94870000      -1.49590000
C       -1.79350000      -2.08080000      -0.00930000
O       -0.76650000      -2.95390000       0.37240000
C       -2.06100000       0.18900000       1.20810000
C       -2.45030000       0.79550000       2.17310000
H       -0.31780000       1.72040000       0.29880000
H        0.28010000      -0.63330000      -1.10380000
H        0.51120000      -0.46040000       0.64800000
H       -3.46650000      -0.18760000      -1.04730000
H       -2.04750000       0.26180000      -2.01890000
H       -3.05370000      -2.54630000      -1.83340000
H       -1.36000000      -2.14470000      -2.16470000
H       -2.65150000      -2.33590000       0.61750000
H       -0.05390000      -2.89260000      -0.27190000
H       -2.81190000       1.31050000       3.02870000
