19
Properties=species:S:1:pos:R:3 gdb_67371=T pbc="F F F"
C       -0.01170000       1.52930000       0.04020000
C        0.01110000       0.02430000       0.00920000
C        0.69500000      -0.88360000      -1.04560000
C        1.54240000      -1.55480000       0.06140000
C        0.68560000      -0.80450000       1.15690000
C       -0.44060000      -1.61630000       1.74150000
C       -1.51960000      -1.61690000       0.95410000
C       -1.26060000      -0.81030000      -0.29170000
O       -0.54240000      -1.56970000      -1.32800000
H        0.99800000       1.94020000       0.15040000
H       -0.44150000       1.94000000      -0.88000000
H       -0.61130000       1.89390000       0.88280000
H        1.19230000      -0.54030000      -1.95680000
H        1.52470000      -2.64590000       0.08540000
H        2.57930000      -1.20550000       0.04350000
H        1.27610000      -0.25540000       1.89410000
H       -0.34160000      -2.17410000       2.66710000
H       -2.43600000      -2.16740000       1.13120000
H       -2.13350000      -0.31430000      -0.72830000
