19
Properties=species:S:1:pos:R:3 gdb_111069=T pbc="F F F"
O        0.32730000       0.34020000       1.03200000
C       -0.14810000       0.35260000      -0.31010000
C       -1.42490000      -0.46290000      -0.32000000
C       -1.97440000      -1.20560000      -1.57080000
C       -0.84880000      -2.25940000      -1.47980000
C       -1.41550000      -1.99660000      -0.05960000
C       -1.22470000      -2.77330000       1.20760000
O       -1.48490000      -4.15060000       1.00730000
O       -2.78840000      -2.04410000      -0.66000000
H        1.10740000       0.90050000       1.08280000
H       -0.37140000       1.37780000      -0.64530000
H        0.60430000      -0.05680000      -0.99830000
H       -2.21690000       0.03490000       0.24470000
H       -2.47640000      -0.79880000      -2.44890000
H       -1.10270000      -3.23440000      -1.89460000
H        0.17920000      -1.96670000      -1.69910000
H       -0.18710000      -2.67770000       1.54180000
H       -1.86900000      -2.34160000       1.98960000
H       -2.34630000      -4.20620000       0.57710000
