20
Properties=species:S:1:pos:R:3 gdb_91064=T pbc="F F F"
C        0.17380000       1.62120000       0.07190000
C        0.01120000       0.11410000      -0.06880000
C        0.74660000      -0.49880000      -1.29530000
C        1.49430000      -1.71890000      -0.75070000
C        1.29670000      -1.65990000       0.77390000
O        0.55120000      -0.51320000       1.10810000
C        0.60320000      -3.02620000       0.66600000
C       -0.49030000      -3.03700000      -0.32200000
N        0.88570000      -3.10860000      -0.83810000
H        1.23420000       1.88950000       0.11730000
H       -0.28160000       2.13760000      -0.77970000
H       -0.30990000       1.97440000       0.98680000
H       -1.06270000      -0.11600000      -0.12130000
H        0.05380000      -0.75730000      -2.10070000
H        1.46440000       0.22160000      -1.69910000
H        2.52370000      -1.78020000      -1.10270000
H        2.19670000      -1.68870000       1.39290000
H        0.79930000      -3.87060000       1.31910000
H       -1.02080000      -3.97650000      -0.44790000
H       -1.10530000      -2.16130000      -0.49680000
