23
Properties=species:S:1:pos:R:3 gdb_114261=T pbc="F F F"
C       -0.03810000       1.69760000       0.17290000
C        0.08530000       0.17050000       0.08840000
C       -1.28030000      -0.51300000       0.01620000
C       -2.07550000      -0.48590000      -1.37290000
C       -1.82600000      -2.00660000      -1.44160000
C       -2.26480000      -3.50510000      -1.39770000
C       -0.90060000      -3.38780000      -0.57410000
C       -0.37790000      -2.52640000      -1.73550000
C       -1.52580000      -2.09070000       0.05540000
H        0.94660000       2.17260000       0.22460000
H       -0.55680000       2.10290000      -0.70280000
H       -0.60310000       2.00090000       1.06130000
H        0.70630000      -0.08280000      -0.77590000
H        0.61910000      -0.20280000       0.97160000
H       -1.89190000      -0.07990000       0.81490000
H       -3.12280000      -0.20490000      -1.23230000
H       -1.65210000       0.11690000      -2.18290000
H       -3.16500000      -3.72880000      -0.81900000
H       -2.21750000      -4.09950000      -2.31660000
H       -0.38660000      -4.22000000      -0.08310000
H       -0.24000000      -3.02600000      -2.69910000
H        0.45960000      -1.86700000      -1.51870000
H       -2.38610000      -2.29800000       0.69960000
