19
Properties=species:S:1:pos:R:3 gdb_47808=T pbc="F F F"
O       -0.01800000      -0.06030000      -0.26920000
C       -0.02080000       1.12770000      -0.07100000
C       -1.31250000       1.94830000       0.03270000
N       -1.63240000       2.20980000       1.43840000
C       -0.83920000       3.23260000       2.11950000
C        0.57170000       2.73160000       2.47290000
C        1.52690000       2.74180000       1.29280000
N        2.27030000       1.49620000       1.01100000
C        1.24820000       1.94620000       0.06930000
H       -1.19960000       2.87520000      -0.56410000
H       -2.11720000       1.34750000      -0.39760000
H       -2.61470000       2.44480000       1.50570000
H       -0.76280000       4.17170000       1.53700000
H       -1.36820000       3.47530000       3.04670000
H        0.98700000       3.34940000       3.27720000
H        0.48940000       1.70930000       2.85450000
H        2.05210000       3.68230000       1.13200000
H        3.20010000       1.69690000       0.65270000
H        1.56120000       2.38180000      -0.88120000
