17
Properties=species:S:1:pos:R:3 gdb_29373=T pbc="F F F"
C       -0.34020000       1.55570000      -0.19220000
C       -0.06790000       0.09400000      -0.00090000
C        0.34170000      -0.79840000      -0.96550000
N        0.46730000      -2.03750000      -0.38610000
C        0.16000000      -1.95330000       0.94820000
C        0.15990000      -3.15850000       1.84600000
C        1.24070000      -4.09750000       1.53310000
N        2.07890000      -4.83580000       1.23680000
C       -0.17810000      -0.64680000       1.21490000
H        0.29380000       2.17450000       0.45330000
H       -0.15280000       1.85900000      -1.22640000
H       -1.38040000       1.81030000       0.04250000
H        0.56130000      -0.64970000      -2.01100000
H        0.82420000      -2.86130000      -0.84080000
H        0.26170000      -2.83470000       2.88660000
H       -0.78690000      -3.71440000       1.78600000
H       -0.48070000      -0.25980000       2.17720000
