19
Properties=species:S:1:pos:R:3 gdb_6043=T pbc="F F F"
C        0.07070000       1.54730000      -0.12430000
C       -0.03880000       0.02230000      -0.05160000
C       -1.47640000      -0.51910000       0.06740000
C       -2.22660000       0.01860000       1.29070000
O       -2.26310000      -0.14490000      -1.07400000
C       -1.40550000      -2.06040000       0.21300000
N       -2.23800000      -2.74140000      -0.61880000
O       -0.66390000      -2.59350000       1.01800000
H        1.09970000       1.84480000      -0.34690000
H       -0.57670000       1.95460000      -0.90710000
H       -0.20980000       2.02160000       0.82050000
H        0.40870000      -0.42050000      -0.95410000
H        0.53670000      -0.37760000       0.78710000
H       -2.29860000       1.10730000       1.24940000
H       -3.24220000      -0.38720000       1.31430000
H       -1.71080000      -0.28110000       2.20520000
H       -1.70780000      -0.24080000      -1.85600000
H       -2.91610000      -2.22800000      -1.15650000
H       -2.33560000      -3.73490000      -0.48970000
