19
Properties=species:S:1:pos:R:3 gdb_90338=T pbc="F F F"
C       -0.30640000       1.37490000      -0.21000000
C       -0.03070000      -0.10340000      -0.00490000
N        1.21270000      -0.61520000      -0.71060000
C        1.89010000      -0.62000000       0.49860000
N        3.02750000      -0.33860000       0.98970000
C        2.72700000      -0.06980000       2.43060000
C        1.19430000       0.28950000       2.50460000
C        0.64540000      -0.55780000       1.34530000
O        0.05040000      -1.77980000       1.73850000
H        0.56410000       1.98580000       0.05050000
H       -0.56240000       1.57960000      -1.25500000
H       -1.15140000       1.69560000       0.40770000
H       -0.90350000      -0.71690000      -0.23860000
H        1.59950000      -0.14400000      -1.52090000
H        2.97940000      -0.93590000       3.05860000
H        3.35490000       0.75840000       2.76980000
H        0.72030000       0.04660000       3.45920000
H        1.07130000       1.36140000       2.32340000
H        0.68220000      -2.26510000       2.28050000
