21
Properties=species:S:1:pos:R:3 gdb_121539=T pbc="F F F"
C        0.45620000       1.40010000       0.17800000
C       -0.01260000      -0.01640000      -0.10610000
O        0.70960000      -0.51290000      -1.21530000
C        0.33650000      -1.83650000      -1.55250000
C        1.10330000      -2.30860000      -2.69560000
C        1.72730000      -2.72230000      -3.64010000
C        2.47000000      -3.20760000      -4.76520000
C        3.98560000      -3.07180000      -4.79260000
C        3.36960000      -4.42660000      -4.61900000
H        1.52660000       1.41140000       0.40180000
H        0.28130000       2.04260000      -0.68950000
H       -0.08330000       1.81590000       1.03420000
H        0.14890000      -0.66260000       0.77450000
H       -1.09590000      -0.03140000      -0.31820000
H        0.49660000      -2.50840000      -0.69040000
H       -0.74270000      -1.88170000      -1.78330000
H        1.97290000      -3.10400000      -5.72540000
H        4.44170000      -2.82550000      -5.74470000
H        4.45120000      -2.60790000      -3.93170000
H        3.41660000      -4.88720000      -3.63960000
H        3.39820000      -5.12200000      -5.45030000
