17
Properties=species:S:1:pos:R:3 gdb_54771=T pbc="F F F"
C        0.39570000       0.75010000       1.30320000
C        0.12770000      -0.01790000       0.02080000
O        0.87980000       0.03030000      -0.92600000
C       -1.16320000      -0.82090000       0.01110000
C       -1.53740000      -1.67780000      -1.24650000
C       -0.42200000      -2.69350000      -0.79870000
C       -1.12200000      -2.31540000       0.54910000
C       -2.42450000      -2.45600000      -0.26150000
O       -3.51460000      -2.92560000      -0.16970000
H        1.38050000       1.21580000       1.25540000
H       -0.36650000       1.52620000       1.43940000
H        0.33310000       0.08890000       2.17420000
H       -1.97000000      -0.21950000       0.44290000
H       -1.74870000      -1.31380000      -2.24820000
H       -0.53270000      -3.72610000      -1.13310000
H        0.59400000      -2.32910000      -0.92380000
H       -0.88430000      -2.64960000       1.55680000
