18
Properties=species:S:1:pos:R:3 gdb_96310=T pbc="F F F"
O       -0.28090000       1.47830000       0.55690000
C       -0.05340000       0.18270000       0.01960000
C        0.92850000      -0.60050000       0.90590000
O        1.28080000      -1.82730000       0.27480000
C        0.52480000      -2.93200000       0.66430000
O       -0.86840000      -2.67320000       0.70160000
C       -1.39140000      -1.95360000      -0.37030000
N       -1.86720000      -2.48650000      -1.40980000
C       -1.43590000      -0.47480000      -0.10050000
H        0.52760000       1.99150000       0.46010000
H        0.39460000       0.24170000      -0.98370000
H        1.85490000      -0.02480000       1.01490000
H        0.50450000      -0.76110000       1.90520000
H        0.76460000      -3.71940000      -0.06130000
H        0.76570000      -3.26570000       1.68310000
H       -1.76480000      -3.50320000      -1.36390000
H       -1.95260000      -0.32130000       0.85510000
H       -2.00930000       0.01780000      -0.88640000
