24
Properties=species:S:1:pos:R:3 gdb_6415=T pbc="F F F"
C        0.09740000       1.54380000       0.09660000
C       -0.03210000       0.02000000       0.00350000
C       -1.47810000      -0.50600000      -0.07910000
C       -2.19050000      -0.02930000      -1.35330000
C       -1.48820000      -2.04200000       0.03570000
C       -2.86730000      -2.67310000       0.27520000
C       -2.79050000      -4.19770000       0.37370000
O       -3.50710000      -2.11690000       1.42440000
H        1.14280000       1.83870000       0.23360000
H       -0.26640000       2.04480000      -0.80540000
H       -0.47220000       1.93670000       0.94660000
H        0.53320000      -0.34320000      -0.86680000
H        0.45040000      -0.42750000       0.88240000
H       -2.03120000      -0.11570000       0.78550000
H       -2.22230000       1.06210000      -1.41370000
H       -1.67570000      -0.39770000      -2.24980000
H       -3.22520000      -0.38130000      -1.39380000
H       -1.04890000      -2.48400000      -0.86970000
H       -0.83250000      -2.34400000       0.86680000
H       -3.53720000      -2.41200000      -0.55210000
H       -2.12180000      -4.50150000       1.18930000
H       -3.78130000      -4.61590000       0.57090000
H       -2.40430000      -4.63700000      -0.55190000
H       -2.97380000      -2.34900000       2.19320000
