20
Properties=species:S:1:pos:R:3 gdb_91346=T pbc="F F F"
C       -0.08380000       1.51230000       0.02710000
C       -0.02720000       0.00240000      -0.00060000
C       -1.32250000      -0.79010000       0.34140000
O       -2.11110000      -1.36200000      -0.65790000
C       -0.44090000      -1.67190000       1.27010000
N        0.71460000      -0.72020000       1.13180000
C        1.72520000      -1.21560000       0.15040000
C        0.94070000      -0.62350000      -1.04870000
O        0.30880000      -1.55910000      -1.91520000
H        0.91720000       1.95530000      -0.01490000
H       -0.65750000       1.88390000      -0.83030000
H       -0.56780000       1.86320000       0.94340000
H       -1.98880000      -0.15130000       0.93040000
H       -1.50320000      -1.76750000      -1.29040000
H       -0.77900000      -1.78720000       2.30370000
H       -0.24660000      -2.66600000       0.85000000
H        2.70280000      -0.75020000       0.31410000
H        1.84930000      -2.30410000       0.13360000
H        1.48970000       0.12130000      -1.63980000
H        0.98800000      -2.06340000      -2.37410000
