21
Properties=species:S:1:pos:R:3 gdb_118254=T pbc="F F F"
O       -0.07950000       1.42640000      -0.08410000
C        0.00160000       0.00810000      -0.09990000
C       -1.41490000      -0.53730000       0.03190000
C       -1.46910000      -2.06600000       0.06450000
O       -0.68770000      -2.59930000       1.13660000
C       -2.90990000      -2.59670000       0.12040000
C       -2.96600000      -4.10150000       0.02410000
C       -4.09230000      -4.80410000      -0.60000000
O       -2.85430000      -4.64970000      -1.29550000
H        0.81410000       1.77710000      -0.13870000
H        0.45000000      -0.35650000      -1.03860000
H        0.62010000      -0.37240000       0.72500000
H       -1.86630000      -0.13110000       0.94850000
H       -2.01900000      -0.16400000      -0.80330000
H       -0.99340000      -2.46590000      -0.83970000
H       -1.03530000      -2.23250000       1.95810000
H       -3.37530000      -2.27030000       1.06240000
H       -3.49650000      -2.16340000      -0.69750000
H       -2.37660000      -4.63300000       0.77050000
H       -4.33580000      -5.82120000      -0.29530000
H       -4.92770000      -4.22980000      -1.00000000
