22
Properties=species:S:1:pos:R:3 gdb_114252=T pbc="F F F"
C        0.16780000       1.50950000      -0.11960000
C        0.08510000      -0.01140000      -0.00960000
N       -1.28270000      -0.46680000       0.12930000
C       -1.99400000      -0.21350000       1.39910000
C       -2.60120000      -1.63100000       1.31640000
C       -2.88670000      -2.53470000       2.52600000
C       -4.32770000      -2.57090000       1.98330000
O       -3.97290000      -1.70740000       0.88300000
C       -1.53190000      -1.91640000       0.23910000
H        1.20620000       1.83320000      -0.23940000
H       -0.41210000       1.86440000      -0.97620000
H       -0.22930000       1.99230000       0.77980000
H        0.49930000      -0.47080000      -0.91580000
H        0.71600000      -0.35760000       0.83620000
H       -1.32300000      -0.10460000       2.26940000
H       -2.70580000       0.61800000       1.38170000
H       -2.35520000      -3.48860000       2.52660000
H       -2.76100000      -2.05440000       3.49860000
H       -4.68370000      -3.54870000       1.63720000
H       -5.09430000      -2.12120000       2.62530000
H       -1.88370000      -2.39930000      -0.67890000
H       -0.67930000      -2.48520000       0.64920000
