25
Properties=species:S:1:pos:R:3 gdb_107464=T pbc="F F F"
C       -1.11050000      -1.83230000       0.29050000
C        0.01650000      -0.81490000       0.07770000
C        0.88570000      -1.05210000      -1.13620000
C        0.35710000      -1.61270000      -2.43210000
C        1.47110000      -2.33920000      -1.73060000
C        2.79470000      -1.63740000      -2.03930000
C        2.23800000      -0.31740000      -1.38680000
C        2.19390000       0.93110000      -2.26900000
C        2.98060000      -0.01100000      -0.08340000
H       -1.85590000      -1.79080000      -0.50930000
H       -0.72080000      -2.85510000       0.33450000
H       -1.63010000      -1.63510000       1.23300000
H       -0.42060000       0.19200000       0.01050000
H        0.64820000      -0.80410000       0.97430000
H       -0.61820000      -2.08310000      -2.37020000
H        0.54180000      -1.12120000      -3.38450000
H        1.36200000      -3.36410000      -1.39480000
H        3.65300000      -2.03620000      -1.49260000
H        3.05660000      -1.58060000      -3.10210000
H        1.68070000       0.74950000      -3.21730000
H        1.67550000       1.75310000      -1.76120000
H        3.20760000       1.27690000      -2.50350000
H        4.00900000       0.30080000      -0.29840000
H        2.49910000       0.79790000       0.47760000
H        3.02830000      -0.89000000       0.56810000
