19
Properties=species:S:1:pos:R:3 gdb_55920=T pbc="F F F"
C       -0.11330000       0.95000000       0.78960000
C       -0.02300000       0.06670000      -0.43600000
O        0.95260000       0.02800000      -1.14960000
C       -1.22760000      -0.83730000      -0.71060000
C       -1.00920000      -2.20810000      -0.07510000
O       -0.89380000      -2.17010000       1.38260000
C       -1.86760000      -3.21310000       1.49560000
C       -3.19840000      -2.75410000       0.99950000
C       -2.14740000      -3.22460000       0.01110000
H        0.82880000       1.47570000       0.94870000
H       -0.92570000       1.67680000       0.66920000
H       -0.36320000       0.33040000       1.65760000
H       -2.15230000      -0.39250000      -0.33190000
H       -1.30810000      -0.97390000      -1.79350000
H       -0.09910000      -2.65900000      -0.48850000
H       -1.68540000      -4.00000000       2.21740000
H       -4.01660000      -3.45420000       1.13700000
H       -3.47280000      -1.70670000       1.08440000
H       -2.30550000      -4.04700000      -0.67260000
