16
Properties=species:S:1:pos:R:3 gdb_37124=T pbc="F F F"
C       -0.07300000       1.61430000      -0.26430000
C        1.23830000       0.91850000       0.01170000
O        1.72690000       0.86570000       1.31580000
C        1.03050000      -0.19730000       1.96740000
O       -0.24080000      -0.31790000       1.32790000
C       -0.07020000       0.13130000       0.01980000
C        0.51200000      -0.80830000      -1.07430000
N        0.85210000       0.05540000      -2.22860000
C        1.78560000      -0.04170000      -1.08250000
H       -0.43200000       2.21960000       0.55950000
H       -0.29590000       1.97450000      -1.26020000
H        1.59590000      -1.13820000       1.88310000
H        0.87940000       0.06460000       3.01830000
H        0.28590000      -1.86010000      -1.19540000
H        1.21440000      -0.55480000      -2.96080000
H        2.81970000      -0.33500000      -1.21190000
