21
Properties=species:S:1:pos:R:3 gdb_7595=T pbc="F F F"
C        1.53390000      -2.23360000       1.24360000
C        0.42410000      -1.70700000       0.33020000
O       -0.21530000      -0.56240000       0.89770000
C        0.89640000      -1.42720000      -1.09650000
C        2.00610000      -0.40060000      -1.24010000
C        0.79620000      -2.53660000      -2.09500000
N       -0.07980000      -1.37610000      -2.19030000
C       -1.50370000      -1.55410000      -1.93870000
H        1.98120000      -3.14570000       0.83630000
H        2.33390000      -1.49520000       1.36750000
H        1.12470000      -2.45580000       2.23300000
H       -0.36710000      -2.46090000       0.29170000
H        0.46080000       0.10260000       1.06500000
H        2.94090000      -0.73790000      -0.78090000
H        2.19020000      -0.20660000      -2.29870000
H        1.72340000       0.55430000      -0.78100000
H        1.54290000      -2.64780000      -2.87840000
H        0.35810000      -3.47660000      -1.75600000
H       -1.75770000      -2.42970000      -1.32190000
H       -1.89520000      -0.66320000      -1.44080000
H       -2.01230000      -1.67050000      -2.90130000
