23
Properties=species:S:1:pos:R:3 gdb_118904=T pbc="F F F"
C        0.01600000       1.38900000       0.00710000
O        0.04000000      -0.01630000      -0.02960000
C        0.61620000      -0.59100000       1.12480000
C        0.62040000      -2.12160000       0.99830000
C       -0.81750000      -2.64010000       0.88530000
C        1.50790000      -2.53440000      -0.21920000
C        2.83300000      -2.90180000       0.39870000
C        2.76260000      -2.99040000       1.72530000
C        1.37470000      -2.69630000       2.23900000
H        1.02940000       1.81400000       0.08800000
H       -0.43840000       1.73500000      -0.92470000
H       -0.57960000       1.76640000       0.85380000
H        1.64850000      -0.22420000       1.25770000
H        0.04290000      -0.29350000       2.02040000
H       -1.32050000      -2.20510000       0.01770000
H       -0.83140000      -3.73020000       0.78280000
H       -1.40140000      -2.38020000       1.77620000
H        1.07620000      -3.39220000      -0.75380000
H        1.57560000      -1.72380000      -0.95180000
H        3.72070000      -3.09400000      -0.19470000
H        3.58090000      -3.26740000       2.38120000
H        1.37370000      -1.99210000       3.08200000
H        0.88980000      -3.60940000       2.61150000
