18
Properties=species:S:1:pos:R:3 gdb_54725=T pbc="F F F"
C        0.34030000       0.94730000       1.22700000
C        0.12130000       0.13440000      -0.03690000
O        0.78410000       0.29370000      -1.03500000
C       -1.04550000      -0.83250000       0.01170000
C       -1.24100000      -2.13440000      -0.70040000
C       -0.09050000      -3.14090000      -0.50490000
C        1.01560000      -2.71090000       0.37070000
N       -0.25140000      -3.13860000       0.99670000
C       -1.32360000      -2.08620000       0.81620000
H        1.13820000       1.67430000       1.07060000
H       -0.58290000       1.46420000       1.51250000
H        0.59710000       0.28340000       2.06010000
H       -1.96990000      -0.24910000       0.00010000
H       -2.03070000      -2.29830000      -1.42140000
H       -0.06770000      -4.08020000      -1.04720000
H        1.80560000      -3.43800000       0.54010000
H        1.35170000      -1.68470000       0.41880000
H       -2.17580000      -2.15910000       1.48040000
