17
Properties=species:S:1:pos:R:3 gdb_80516=T pbc="F F F"
C       -0.28160000       1.45280000       0.05320000
N        0.13630000       0.05810000       0.01470000
C        1.24010000      -0.38290000      -0.87170000
C        1.89840000      -1.12670000       0.29460000
C        2.20770000      -0.16840000       1.40700000
O        2.61220000       1.14450000       1.18230000
C        0.76150000      -0.54410000       1.18150000
C       -0.03040000      -1.15140000       2.21070000
N       -0.66260000      -1.63360000       3.05140000
H        0.54370000       2.15780000       0.21750000
H       -0.78200000       1.69630000      -0.88970000
H       -1.01370000       1.57560000       0.85730000
H        0.88710000      -1.03010000      -1.67970000
H        1.84750000       0.42850000      -1.29110000
H        2.26420000      -2.14450000       0.27510000
H        2.63860000      -0.64430000       2.28920000
H        3.51380000       1.12850000       0.84090000
