17
Properties=species:S:1:pos:R:3 gdb_36045=T pbc="F F F"
N        0.11240000      -1.32280000       0.17350000
C        0.03240000      -0.18580000       0.36580000
C       -0.02670000       1.25650000       0.57870000
C        1.23240000       1.99670000       0.11310000
C        2.56690000       1.35080000       0.19050000
N        1.91370000       1.57830000      -1.11310000
C        1.10360000       3.47820000       0.32840000
C        1.47450000       4.45000000      -0.70340000
O        0.10000000       4.13280000      -0.45420000
H       -0.88790000       1.66180000       0.03450000
H       -0.20480000       1.45150000       1.64310000
H        3.44720000       1.96080000       0.37210000
H        2.62370000       0.33440000       0.56980000
H        1.52190000       0.70510000      -1.46040000
H        1.12200000       3.79030000       1.37470000
H        1.77930000       5.45220000      -0.40640000
H        1.87260000       4.07760000      -1.64280000
