17
Properties=species:S:1:pos:R:3 gdb_127637=T pbc="F F F"
C       -0.42240000       1.32080000      -0.01360000
N        0.04670000      -0.05770000      -0.00640000
N        0.23940000      -0.61210000      -1.22060000
C        0.63750000      -1.85110000      -1.24650000
C        0.90320000      -2.62000000      -0.08330000
C        0.70570000      -2.05820000       1.14320000
N        0.90730000      -2.71550000       2.34060000
C        0.19870000      -0.68250000       1.22700000
N       -0.09560000      -0.01160000       2.29130000
H        0.26690000       1.95630000       0.54880000
H       -0.48180000       1.63460000      -1.05390000
H       -1.39950000       1.38840000       0.47310000
H        0.78120000      -2.27120000      -2.23580000
H        1.27660000      -3.63470000      -0.18010000
H        1.43490000      -3.57380000       2.27620000
H        1.22370000      -2.12780000       3.10000000
H       -0.02810000      -0.59210000       3.12240000
