14
Properties=species:S:1:pos:R:3 gdb_42212=T pbc="F F F"
O       -0.04400000      -0.00660000       0.20690000
C       -0.07070000       1.19490000       0.07610000
C        1.15860000       1.96720000      -0.15580000
N        2.16690000       2.50430000      -0.33120000
C       -1.33060000       1.97790000       0.11580000
N       -1.36190000       3.24090000      -0.10360000
C       -2.78170000       3.62220000       0.01630000
C       -3.58210000       2.28680000       0.05470000
N       -2.51330000       1.34130000       0.40620000
H       -2.90570000       4.19280000       0.94540000
H       -3.07140000       4.27820000      -0.80810000
H       -4.37810000       2.28690000       0.80280000
H       -4.02340000       2.04700000      -0.92200000
H       -2.59390000       0.35580000       0.20540000
