17
Properties=species:S:1:pos:R:3 gdb_27096=T pbc="F F F"
C       -0.22820000       1.33870000      -0.41900000
C       -0.04060000      -0.12380000      -0.15100000
C        0.35390000      -1.08460000      -1.05210000
N        0.43730000      -2.29970000      -0.42240000
C        0.10210000      -2.13690000       0.90040000
C       -0.20400000      -0.81260000       1.09300000
O        0.70720000      -1.00080000      -2.37180000
C       -0.29700000      -0.77410000      -3.26800000
N       -0.01550000      -0.64270000      -4.48680000
H        0.34630000       1.94730000       0.28790000
H        0.10750000       1.60200000      -1.42610000
H       -1.27710000       1.64470000      -0.32640000
H        0.74640000      -3.14650000      -0.86710000
H        0.11300000      -2.97120000       1.58220000
H       -0.50900000      -0.36560000       2.02730000
H       -1.28210000      -0.72990000      -2.78890000
H       -0.86490000      -0.48440000      -5.02490000
