18
Properties=species:S:1:pos:R:3 gdb_89774=T pbc="F F F"
C       -0.03230000       1.50120000       0.02370000
N       -0.04350000       0.05800000       0.10380000
C       -1.29720000      -0.62740000       0.48680000
C       -0.46620000      -1.57090000       1.35270000
C       -0.80130000      -2.51940000       2.40650000
O       -0.35310000      -2.95020000       1.10870000
C        0.71390000      -0.58220000       1.21150000
C        2.03740000      -1.08730000       0.89890000
C        3.13780000      -1.50890000       0.66380000
H        0.98470000       1.84890000      -0.18220000
H       -0.67310000       1.83000000      -0.80060000
H       -0.38530000       1.99310000       0.95100000
H       -1.98570000      -0.00290000       1.08000000
H       -1.84330000      -1.08170000      -0.34590000
H       -0.09890000      -2.69330000       3.22060000
H       -1.84490000      -2.73270000       2.63440000
H        0.76610000       0.06430000       2.10650000
H        4.10420000      -1.88920000       0.44230000
