16
Properties=species:S:1:pos:R:3 gdb_34348=T pbc="F F F"
N       -0.01310000      -1.14570000       0.10280000
C       -0.02780000       0.01010000       0.07430000
C       -0.01560000       1.45240000      -0.00740000
C       -0.36960000       2.09450000      -1.38180000
N        0.81330000       2.99660000      -1.27230000
C        1.27820000       2.30480000      -0.04590000
C        0.81390000       2.93710000       1.28150000
C       -0.51010000       3.55920000       1.14260000
N       -0.46110000       2.08920000       1.30390000
H       -0.31170000       1.36090000      -2.19220000
H       -1.33150000       2.61390000      -1.44090000
H        1.45520000       2.92270000      -2.05150000
H        2.27430000       1.86360000      -0.05860000
H        1.43220000       3.03420000       2.16750000
H       -0.93390000       4.03320000       2.02210000
H       -0.79240000       4.01020000       0.19800000
