19
Properties=species:S:1:pos:R:3 gdb_116750=T pbc="F F F"
C        0.48450000       0.86620000       0.55960000
C       -0.27010000       0.23220000      -0.61180000
N        0.44390000      -0.67630000      -1.49730000
C        1.65340000      -0.92890000      -1.29740000
O        2.27980000      -1.79890000      -2.16930000
C        3.60080000      -2.08210000      -1.95930000
O        4.26270000      -1.62690000      -1.06540000
C        4.09940000      -3.05330000      -3.02160000
N        5.49370000      -3.43390000      -2.90770000
H        0.86990000       0.11140000       1.25310000
H        1.32660000       1.47800000       0.21930000
H       -0.19290000       1.51680000       1.12050000
H       -1.13890000      -0.32220000      -0.23400000
H       -0.69020000       1.02050000      -1.24980000
H        2.31550000      -0.55950000      -0.51650000
H        3.45970000      -3.94320000      -2.98460000
H        3.90950000      -2.59980000      -4.00170000
H        6.07250000      -2.59900000      -2.93110000
H        5.65670000      -3.84080000      -1.99100000
