19
Properties=species:S:1:pos:R:3 gdb_26377=T pbc="F F F"
C       -0.02600000       1.66840000       0.21670000
C       -0.06780000       0.16810000      -0.08920000
C        0.66820000      -0.64090000       0.98940000
N       -1.46510000      -0.25190000      -0.16440000
C       -1.79920000      -1.15290000      -0.98180000
N       -3.07010000      -1.66270000      -1.17820000
C       -3.04790000      -2.60060000      -2.20660000
C       -1.77750000      -2.70020000      -2.60880000
O       -0.98300000      -1.83770000      -1.87210000
H        1.00680000       2.02740000       0.27910000
H       -0.54280000       2.23670000      -0.56230000
H       -0.52460000       1.87500000       1.16940000
H        0.44400000      -0.00310000      -1.04840000
H        0.66700000      -1.70720000       0.74370000
H        1.70930000      -0.31270000       1.08270000
H        0.17720000      -0.51390000       1.95990000
H       -3.87570000      -1.27340000      -0.72430000
H       -3.93190000      -3.11550000      -2.54060000
H       -1.28260000      -3.30210000      -3.34940000
