20
Properties=species:S:1:pos:R:3 gdb_63158=T pbc="F F F"
C        0.03770000       1.55350000       0.01410000
C        0.04780000       0.03750000      -0.02420000
C       -1.18580000      -0.59280000       0.59840000
C        0.65840000      -0.70890000      -1.19340000
C        1.40770000      -0.01880000      -2.31210000
O        2.55110000       0.75710000      -1.89780000
C        3.07190000       0.56290000      -0.66420000
N        2.60230000      -0.07920000       0.31970000
C        1.34780000      -0.74250000       0.15270000
H        0.90900000       2.00290000      -0.46380000
H       -0.85390000       1.93690000      -0.49620000
H        0.00230000       1.91070000       1.04900000
H       -2.09400000      -0.28930000       0.06410000
H       -1.13560000      -1.68600000       0.57560000
H       -1.29630000      -0.28470000       1.64430000
H        0.14240000      -1.60690000      -1.52280000
H        1.77720000      -0.77670000      -3.01280000
H        0.77550000       0.67690000      -2.87480000
H        4.02250000       1.08660000      -0.58430000
H        1.27600000      -1.64740000       0.74810000
