16
Properties=species:S:1:pos:R:3 gdb_50454=T pbc="F F F"
N       -0.05540000       1.29070000      -0.23620000
C       -0.01120000       0.05040000       0.03370000
O        1.17540000      -0.61630000       0.16590000
C        1.16060000      -1.85460000       0.87870000
C        0.08290000      -2.82410000       0.36780000
C       -0.04350000      -3.97700000       1.35530000
O        0.28690000      -5.10950000       1.12650000
C       -1.22070000      -2.07380000       0.24320000
C       -1.24100000      -0.74420000       0.12920000
H        0.89210000       1.67170000      -0.28630000
H        2.15990000      -2.27570000       0.75510000
H        0.99790000      -1.65350000       1.94740000
H        0.37950000      -3.25650000      -0.59540000
H       -0.47090000      -3.68480000       2.34250000
H       -2.14490000      -2.64460000       0.23440000
H       -2.16030000      -0.18010000       0.03100000
