19
Properties=species:S:1:pos:R:3 gdb_121489=T pbc="F F F"
C       -0.17920000       1.34010000      -0.06800000
C       -0.26170000      -0.02870000      -0.75010000
C        1.12990000      -0.63620000      -0.96510000
N        1.24660000      -1.93900000      -1.60210000
C        0.22000000      -2.55480000      -1.97040000
O        0.38930000      -3.78290000      -2.56920000
C       -0.75160000      -4.44990000      -2.95690000
N       -0.39060000      -5.61340000      -3.55170000
O       -1.87830000      -4.04810000      -2.80330000
H        0.30370000       1.26630000       0.91270000
H        0.40090000       2.04880000      -0.66940000
H       -1.17420000       1.76880000       0.08290000
H       -0.87280000      -0.70580000      -0.13990000
H       -0.77610000       0.07280000      -1.71410000
H        1.74090000       0.05900000      -1.55750000
H        1.64520000      -0.71230000       0.00250000
H       -0.82680000      -2.26650000      -1.89180000
H        0.56650000      -5.91830000      -3.52710000
H       -1.11780000      -6.26550000      -3.78470000
