16
Properties=species:S:1:pos:R:3 gdb_22329=T pbc="F F F"
C       -0.03220000       1.51800000       0.01950000
C        0.00060000       0.03120000      -0.07510000
C       -0.01890000      -0.76000000      -1.16920000
C        0.02790000      -2.17520000      -0.80880000
C        0.08440000      -2.28570000       0.69570000
C        0.06420000      -0.82070000       1.14840000
O        0.09430000      -0.41770000       2.28800000
N        0.02550000      -3.20790000      -1.56550000
O       -0.03140000      -2.86040000      -2.92010000
H        0.85350000       1.88570000       0.54950000
H       -0.07820000       1.98970000      -0.96440000
H       -0.89540000       1.84330000       0.61080000
H       -0.06330000      -0.42750000      -2.19750000
H       -0.76840000      -2.82840000       1.11450000
H        0.99140000      -2.78400000       1.05120000
H       -0.02630000      -3.72120000      -3.35200000
