20
Properties=species:S:1:pos:R:3 gdb_95017=T pbc="F F F"
C       -0.31110000       1.53320000       0.01100000
C        0.05510000       0.04830000      -0.00930000
C        0.97820000      -0.38090000      -1.18030000
O        1.83050000      -1.43100000      -0.71600000
C        1.82780000      -1.48240000       0.69770000
C        2.87210000      -0.66790000       1.47710000
C        2.86680000       0.75120000       1.09110000
N        1.80570000       0.29550000       2.00990000
C        0.77200000      -0.50340000       1.23310000
H        0.56910000       2.16900000       0.13930000
H       -0.80370000       1.82480000      -0.92260000
H       -0.99950000       1.75390000       0.83230000
H       -0.87350000      -0.52930000      -0.09520000
H        0.40850000      -0.76650000      -2.03330000
H        1.57740000       0.46480000      -1.54730000
H        1.76060000      -2.52650000       1.01270000
H        3.62210000      -1.09210000       2.13680000
H        3.58000000       1.39680000       1.59560000
H        2.64580000       1.05120000       0.07460000
H        0.07360000      -0.91230000       1.96410000
