19
Properties=species:S:1:pos:R:3 gdb_80694=T pbc="F F F"
C       -0.07110000       1.50900000      -0.04990000
C        0.00720000       0.00910000       0.01130000
C       -0.85620000      -0.81680000       0.90720000
O       -1.66610000      -1.84230000       0.39860000
C        0.62750000      -0.94830000       1.07330000
C        1.19850000      -1.83440000      -0.03790000
C        0.65340000      -0.83730000      -1.11520000
C       -0.22530000      -1.35320000      -2.23110000
O       -0.05980000      -1.06480000      -3.39220000
H        0.89900000       1.94690000      -0.30950000
H       -0.79450000       1.83350000      -0.80740000
H       -0.38390000       1.93060000       0.91060000
H       -1.33590000      -0.22360000       1.68740000
H       -1.73260000      -2.53170000       1.06870000
H        1.12610000      -0.71130000       2.00670000
H        2.28780000      -1.88560000      -0.04810000
H        0.79640000      -2.85110000      -0.07930000
H        1.47130000      -0.27720000      -1.57580000
H       -1.04870000      -2.02180000      -1.91200000
