20
Properties=species:S:1:pos:R:3 gdb_97610=T pbc="F F F"
C        0.20420000       1.58730000       0.09990000
C       -0.14690000       0.11290000      -0.17060000
C        0.55550000      -0.44340000      -1.32290000
C        1.15960000      -0.87400000      -2.27220000
C        1.86730000      -1.43610000      -3.42130000
C        2.07880000      -2.95610000      -3.28540000
N        1.15220000      -1.10040000      -4.65800000
C        1.80030000      -0.88670000      -5.83040000
O        3.00100000      -0.97880000      -5.98540000
H        1.27430000       1.70280000       0.29160000
H       -0.05320000       2.21230000      -0.75940000
H       -0.34480000       1.95550000       0.97160000
H        0.08510000      -0.48950000       0.71700000
H       -1.22940000       0.01460000      -0.32340000
H        2.85280000      -0.96610000      -3.51710000
H        2.63490000      -3.32260000      -4.15150000
H        2.64750000      -3.17820000      -2.37830000
H        1.11810000      -3.47530000      -3.22790000
H        0.15250000      -0.98470000      -4.61370000
H        1.10200000      -0.61370000      -6.64650000
