25
Properties=species:S:1:pos:R:3 gdb_108195=T pbc="F F F"
C       -0.05770000       1.54950000       0.08020000
C        0.03430000       0.02310000      -0.04180000
C        0.74110000      -0.48270000      -1.29710000
C        0.04990000      -0.11390000      -2.63860000
C        0.62770000      -1.15090000      -3.65360000
C        1.59450000      -1.98760000      -2.78670000
C        2.81940000      -1.11480000      -2.43430000
C        2.23570000      -0.07820000      -1.42240000
C        0.84610000      -2.02180000      -1.44060000
H        0.93440000       2.01230000       0.10260000
H       -0.60910000       1.98820000      -0.75780000
H       -0.57550000       1.83550000       1.00110000
H        0.55420000      -0.37540000       0.84000000
H       -0.97920000      -0.39960000      -0.01350000
H       -1.03720000      -0.21500000      -2.54700000
H        0.25140000       0.91960000      -2.93500000
H       -0.16680000      -1.77990000      -4.06720000
H        1.13710000      -0.67900000      -4.49950000
H        1.85310000      -2.95480000      -3.22300000
H        3.60540000      -1.71790000      -1.96890000
H        3.25760000      -0.64390000      -3.31980000
H        2.35550000       0.95410000      -1.76400000
H        2.73320000      -0.15360000      -0.44910000
H        1.42320000      -2.48630000      -0.63330000
H       -0.13210000      -2.51180000      -1.49860000
