22
Properties=species:S:1:pos:R:3 gdb_13019=T pbc="F F F"
C       -0.04450000       1.55630000      -0.01370000
C        0.04280000       0.02860000       0.01650000
C        0.79210000      -0.57600000      -1.19490000
C        1.32150000      -1.94490000      -0.71360000
C        1.54320000      -1.76120000       0.78050000
C        2.26210000      -0.50840000       1.22820000
C        0.74980000      -0.55790000       1.24500000
C        0.01840000      -0.52980000       2.56620000
H        0.95450000       2.00570000       0.01440000
H       -0.54270000       1.90530000      -0.92470000
H       -0.60940000       1.94550000       0.83990000
H       -0.98180000      -0.37280000       0.02420000
H        0.15120000      -0.65830000      -2.07730000
H        1.62580000       0.07650000      -1.47830000
H        0.56740000      -2.72540000      -0.87350000
H        2.22330000      -2.25520000      -1.25350000
H        1.62400000      -2.64440000       1.40650000
H        2.76330000      -0.54500000       2.19010000
H        2.77970000       0.09990000       0.49290000
H       -0.14140000       0.49630000       2.91870000
H       -0.96580000      -1.00750000       2.48470000
H        0.58090000      -1.05710000       3.34340000
