19
Properties=species:S:1:pos:R:3 gdb_70667=T pbc="F F F"
C       -0.44020000       1.30540000       0.05450000
C        0.10230000      -0.09710000       0.05730000
O       -0.51220000      -1.02830000       0.97010000
C        0.87780000      -0.70840000       1.14680000
C        1.81570000      -1.75860000       0.59620000
C        1.23920000      -2.06780000      -0.80620000
C        0.50760000      -0.77380000      -1.26000000
C       -0.69160000      -1.07280000      -2.13190000
O       -0.87370000      -0.62650000      -3.23570000
H        0.27560000       1.99590000      -0.40360000
H       -1.37160000       1.36490000      -0.51850000
H       -0.64600000       1.63670000       1.07510000
H        1.11450000      -0.16660000       2.05970000
H        2.82540000      -1.33520000       0.53170000
H        1.87290000      -2.65080000       1.22700000
H        2.00450000      -2.37230000      -1.52280000
H        0.51610000      -2.88470000      -0.73220000
H        1.17110000      -0.10380000      -1.81710000
H       -1.42870000      -1.75950000      -1.65640000
