14
Properties=species:S:1:pos:R:3 gdb_15516=T pbc="F F F"
O       -0.19240000       0.03770000      -0.26530000
C       -0.03220000       1.22340000      -0.16020000
N        1.17400000       1.88610000      -0.01230000
C        1.25740000       3.33550000       0.16730000
C        2.74460000       3.62160000      -0.11500000
N        3.34640000       2.34400000       0.22730000
C        2.46290000       1.28830000       0.07630000
O        2.73060000       0.11860000       0.04320000
H       -0.86880000       1.95350000      -0.18210000
H        0.59220000       3.86400000      -0.51890000
H        0.99590000       3.61620000       1.19460000
H        2.90390000       3.88770000      -1.16950000
H        3.12670000       4.43400000       0.50790000
H        4.31500000       2.14690000       0.03140000
