20
Properties=species:S:1:pos:R:3 gdb_126586=T pbc="F F F"
C        0.05920000       1.56310000      -0.11940000
C        0.00620000       0.03940000       0.01960000
C       -1.42010000      -0.51460000      -0.04160000
C       -1.47360000      -2.04690000       0.09780000
C       -2.87110000      -2.57550000       0.10740000
N       -3.81340000      -2.30520000       0.99790000
C       -4.88310000      -3.01350000       0.54320000
N       -4.67630000      -3.70480000      -0.56470000
N       -3.37930000      -3.40820000      -0.82810000
H        1.08810000       1.93240000      -0.06820000
H       -0.36440000       1.88870000      -1.07590000
H       -0.51130000       2.05230000       0.67740000
H        0.61230000      -0.42290000      -0.77140000
H        0.46900000      -0.25940000       0.96960000
H       -2.03050000      -0.07390000       0.75450000
H       -1.89140000      -0.22150000      -0.98880000
H       -0.90820000      -2.52020000      -0.71420000
H       -0.98460000      -2.34100000       1.03420000
H       -5.84030000      -3.02120000       1.04310000
H       -2.92960000      -3.80690000      -1.63600000
