15
Properties=species:S:1:pos:R:3 gdb_1324=T pbc="F F F"
C       -0.11980000       1.54350000      -0.02610000
C       -0.05530000       0.03580000       0.05250000
C       -1.20670000      -0.71130000      -0.58520000
O        1.23640000      -0.53490000      -0.19170000
C        0.70500000      -0.62960000       1.14220000
C        1.38180000       0.09150000       2.18650000
C        1.93610000       0.66630000       3.08540000
H        0.73860000       1.99820000       0.47050000
H       -0.12850000       1.86290000      -1.07370000
H       -1.03530000       1.91500000       0.44600000
H       -1.27880000      -0.45660000      -1.64810000
H       -1.06540000      -1.79160000      -0.50270000
H       -2.15600000      -0.44230000      -0.11050000
H        0.39520000      -1.63760000       1.42020000
H        2.43080000       1.17710000       3.87430000
