17
Properties=species:S:1:pos:R:3 gdb_57943=T pbc="F F F"
C       -0.01150000       1.56770000      -0.08430000
C        0.01760000       0.03790000       0.05970000
O        0.78660000      -0.33000000       1.16950000
C       -1.39540000      -0.55400000       0.23120000
O       -1.70080000      -1.11020000       1.26120000
N       -2.23230000      -0.37760000      -0.85530000
C       -3.53210000      -0.91370000      -1.02070000
N       -4.14630000      -0.39970000      -2.15040000
O       -4.01980000      -1.75090000      -0.30880000
H        1.01600000       1.93780000      -0.11690000
H       -0.51900000       1.89330000      -0.99910000
H       -0.51280000       2.01990000       0.77630000
H        0.45350000      -0.39900000      -0.85520000
H        0.17200000      -0.80150000       1.75780000
H       -1.83370000       0.09700000      -1.65120000
H       -3.95190000       0.55280000      -2.41980000
H       -5.11660000      -0.66640000      -2.22480000
