13
Properties=species:S:1:pos:R:3 gdb_129589=T pbc="F F F"
N        0.02700000       1.34090000      -0.08940000
C       -0.05970000      -0.01460000      -0.05780000
C       -1.15370000      -0.85600000      -0.05130000
C       -2.51250000      -0.49920000      -0.01050000
C       -3.66840000      -0.15950000       0.03160000
C       -0.53080000      -2.14200000      -0.08610000
O       -1.19680000      -3.30130000      -0.09430000
N        0.77700000      -2.09720000      -0.10570000
O        1.08010000      -0.70420000      -0.08740000
H        0.89450000       1.74100000       0.23400000
H       -0.80660000       1.83330000       0.19360000
H       -4.69170000       0.12140000       0.05860000
H       -0.54430000      -4.01450000      -0.11760000
