23
Properties=species:S:1:pos:R:3 gdb_109049=T pbc="F F F"
C       -0.05000000       1.53900000      -0.17810000
C       -0.05260000       0.01320000       0.02550000
C        0.70660000      -0.43510000       1.25070000
C        0.08860000      -0.90010000       2.34300000
C        0.80060000      -1.36460000       3.55850000
C        1.86070000      -2.45420000       3.43840000
C        2.27280000      -1.02770000       3.67190000
C        2.87010000      -0.16130000       2.57970000
C        2.21940000      -0.37240000       1.19890000
H        0.96660000       1.93450000      -0.27260000
H       -0.59550000       1.81230000      -1.08710000
H       -0.52500000       2.04290000       0.66940000
H       -1.08880000      -0.33680000       0.09310000
H        0.37790000      -0.46260000      -0.86750000
H       -0.99770000      -0.96120000       2.35680000
H        0.21380000      -1.37090000       4.47150000
H        1.96380000      -3.15490000       4.26030000
H        2.00600000      -2.89410000       2.45780000
H        2.63340000      -0.79920000       4.67100000
H        2.73650000       0.88830000       2.87200000
H        3.95130000      -0.32780000       2.50440000
H        2.60120000      -1.29900000       0.74660000
H        2.54480000       0.42800000       0.52470000
