10
Properties=species:S:1:pos:R:3 gdb_1942=T pbc="F F F"
O        0.12200000       0.19670000      -0.54500000
C       -0.04050000       1.25570000      -0.04430000
C       -1.19780000       2.19820000       0.29040000
C       -0.07710000       3.07880000       0.89250000
O        0.92370000       2.09250000       0.49050000
C        0.14580000       4.38020000       0.27300000
N        0.29590000       5.42010000      -0.20660000
H       -1.71090000       2.61040000      -0.57860000
H       -1.92130000       1.80050000       1.00250000
H       -0.09550000       3.17850000       1.98010000
