15
Properties=species:S:1:pos:R:3 gdb_34336=T pbc="F F F"
C       -0.03470000      -1.22620000      -0.00170000
C       -0.00950000      -0.02320000      -0.00080000
C        0.00330000       1.40930000       0.02130000
C       -0.37020000       2.22660000      -1.25130000
O        0.87590000       2.96460000      -1.20340000
C        1.30310000       2.27740000      -0.02780000
C        0.89480000       2.92510000       1.32770000
O       -0.40180000       3.50470000       1.15550000
C       -0.33080000       2.10570000       1.38330000
H       -0.05100000      -2.28800000      -0.01210000
H       -0.43390000       1.61450000      -2.15610000
H       -1.24090000       2.88010000      -1.15740000
H        2.30710000       1.85170000      -0.08490000
H        1.52160000       3.33870000       2.10920000
H       -0.88760000       1.68630000       2.21290000
