16
Properties=species:S:1:pos:R:3 gdb_127253=T pbc="F F F"
C        0.00890000       1.40970000       0.07720000
N       -0.03450000      -0.03360000      -0.01190000
C       -0.04650000      -0.78880000      -1.15110000
C       -0.01880000      -2.10960000      -0.74940000
N       -0.09160000      -3.27110000      -1.51950000
C        0.01160000      -2.04280000       0.67270000
N        0.00110000      -0.76700000       1.09990000
C        0.04680000      -3.15190000       1.54840000
C        0.08760000      -4.14550000       2.22960000
H        1.00050000       1.79460000      -0.18540000
H       -0.73340000       1.85190000      -0.59310000
H       -0.22080000       1.68210000       1.10670000
H       -0.08090000      -0.33810000      -2.12970000
H        0.42560000      -3.22220000      -2.38670000
H        0.18780000      -4.08930000      -0.99270000
H        0.11240000      -5.00430000       2.85300000
