21
Properties=species:S:1:pos:R:3 gdb_67803=T pbc="F F F"
C       -0.03600000       1.47460000       0.05550000
C       -0.01930000      -0.03310000      -0.03700000
C        0.96010000      -0.72110000      -0.93190000
C        0.54660000      -1.96530000      -1.19360000
C       -0.68800000      -2.24800000      -0.37290000
C       -0.23480000      -2.30360000       1.14130000
C       -0.49900000      -0.80960000       1.22900000
C       -1.30160000      -0.83390000      -0.05760000
C       -2.67890000      -0.35710000      -0.40650000
H        0.90830000       1.85480000       0.46180000
H       -0.18210000       1.93230000      -0.92950000
H       -0.83790000       1.83040000       0.70990000
H        1.87860000      -0.25750000      -1.27320000
H        1.08340000      -2.71920000      -1.75690000
H       -1.34340000      -3.04900000      -0.71470000
H       -0.96440000      -2.85310000       1.74260000
H        0.77210000      -2.68480000       1.34350000
H       -0.68540000      -0.24900000       2.13920000
H       -2.86400000       0.64770000      -0.01370000
H       -2.82330000      -0.32170000      -1.49310000
H       -3.44800000      -1.01940000       0.00810000
