13
Properties=species:S:1:pos:R:3 gdb_25095=T pbc="F F F"
N        0.08760000       1.35800000      -0.29820000
C        0.03080000       0.13400000       0.08230000
C       -1.25560000      -0.47750000       0.39720000
C       -1.50110000      -1.68720000       0.92370000
O       -0.64730000      -2.58520000       1.47350000
C        0.65080000      -2.20880000       1.83130000
O        1.02900000      -2.41200000       2.94080000
N        1.46680000      -1.76630000       0.79830000
C        1.22920000      -0.75400000       0.06900000
H        1.04260000       1.61470000      -0.56240000
H       -2.12020000       0.10650000       0.10260000
H       -2.51500000      -2.06520000       0.99460000
H        1.98930000      -0.49310000      -0.67360000
