14
Properties=species:S:1:pos:R:3 gdb_18511=T pbc="F F F"
O       -0.05670000      -0.01560000      -0.08980000
C       -0.01330000       1.17570000      -0.06080000
O        1.12830000       1.86130000       0.15300000
C        1.07140000       3.27760000       0.17970000
C        1.61460000       3.98620000       1.46850000
C        2.59400000       4.73670000       0.55570000
O        3.40990000       3.73970000      -0.05760000
C        2.13710000       4.00690000      -0.64410000
H       -0.88990000       1.83860000      -0.20680000
H        0.06290000       3.62480000      -0.07350000
H        0.86240000       4.60650000       1.95980000
H        2.09580000       3.32550000       2.19120000
H        2.99640000       5.73740000       0.64880000
H        2.11420000       4.28040000      -1.69250000
