14
Properties=species:S:1:pos:R:3 gdb_666=T pbc="F F F"
C       -0.00680000       1.55130000       0.00490000
C        0.06280000       0.04300000      -0.06720000
C        0.65510000      -0.75010000      -1.22310000
C        1.94280000      -0.09210000      -1.70640000
O        2.46770000      -0.02490000      -0.35280000
C        1.32590000      -0.73810000       0.13530000
H        0.96230000       1.99610000      -0.23300000
H       -0.75460000       1.95320000      -0.68700000
H       -0.27680000       1.87540000       1.01560000
H       -0.80120000      -0.47590000       0.34550000
H        0.11820000      -1.53510000      -1.73840000
H        2.56350000      -0.75390000      -2.32090000
H        1.87600000       0.89450000      -2.18010000
H        1.49660000      -1.50210000       0.88580000
