16
Properties=species:S:1:pos:R:3 gdb_8636=T pbc="F F F"
C       -0.14810000       1.55480000       0.00290000
C        0.01850000       0.03540000       0.00640000
C        0.78660000      -0.49980000       1.24190000
O        0.02470000      -0.09570000       2.38260000
C        0.87320000      -1.97050000       1.17660000
C        0.91980000      -3.17040000       1.13580000
C        2.15060000       0.05890000       1.30820000
C        3.25770000       0.51920000       1.38810000
H        0.82250000       2.05860000      -0.02020000
H       -0.71420000       1.86790000      -0.87920000
H       -0.68490000       1.88850000       0.89350000
H       -0.95770000      -0.45960000       0.01460000
H        0.54980000      -0.30290000      -0.88790000
H        0.49060000      -0.40370000       3.16820000
H        0.96670000      -4.23100000       1.10020000
H        4.23810000       0.92260000       1.45590000
