13
Properties=species:S:1:pos:R:3 gdb_43596=T pbc="F F F"
O       -0.01150000       0.03320000       0.26050000
C        0.01560000       1.19860000       0.00410000
O       -1.10910000       1.92310000      -0.27680000
C       -0.79420000       3.24310000      -0.78690000
C       -1.60910000       4.25580000      -0.13470000
C       -2.26950000       5.11680000       0.37770000
C        0.70760000       3.40800000      -0.56060000
O        1.06360000       3.23950000       0.80060000
C        1.20890000       2.11680000      -0.08960000
H       -1.00030000       3.23170000      -1.86500000
H       -2.85530000       5.87240000       0.84130000
H        1.27970000       4.12060000      -1.14540000
H        2.20610000       1.71900000      -0.23420000
