16
Properties=species:S:1:pos:R:3 gdb_26305=T pbc="F F F"
C        0.50070000       0.99780000      -0.74330000
C        0.02560000      -0.02400000       0.28690000
O        0.25730000       0.40660000       1.63000000
C       -1.41390000      -0.39900000       0.11230000
C       -2.31810000      -0.16640000      -0.85060000
O       -3.52240000      -0.75280000      -0.52730000
C       -3.39060000      -1.37240000       0.70780000
O       -4.27570000      -1.94630000       1.27780000
N       -2.07940000      -1.16630000       1.07280000
H        1.54710000       1.24660000      -0.55410000
H        0.41560000       0.60120000      -1.75960000
H       -0.09380000       1.91600000      -0.68420000
H        0.63930000      -0.93020000       0.19990000
H       -0.23010000       1.22880000       1.76130000
H       -2.26670000       0.34900000      -1.79310000
H       -1.71560000      -1.40010000       1.98040000
