16
Properties=species:S:1:pos:R:3 gdb_22796=T pbc="F F F"
O        0.00310000       1.34400000      -0.06350000
N        0.03490000      -0.03710000      -0.03730000
C       -1.11460000      -0.60220000       0.01130000
C       -1.12390000      -2.11060000       0.04340000
C       -1.98320000      -2.64190000       1.20230000
C       -3.29680000      -1.92010000       1.29440000
C       -3.51540000      -0.71490000       0.75220000
C       -2.46490000       0.07180000       0.06460000
O       -2.69060000       1.17380000      -0.39260000
H        0.94140000       1.56600000      -0.05480000
H       -1.55440000      -2.47910000      -0.89800000
H       -0.09650000      -2.47680000       0.10090000
H       -2.15610000      -3.71730000       1.08220000
H       -1.44770000      -2.53150000       2.15710000
H       -4.09720000      -2.41420000       1.84100000
H       -4.47700000      -0.21700000       0.82910000
