16
Properties=species:S:1:pos:R:3 gdb_28308=T pbc="F F F"
N        0.01980000       1.37140000       0.14480000
C       -0.02920000      -0.02290000       0.05310000
C       -1.14450000      -0.84590000       0.04160000
N       -0.62140000      -2.12410000       0.01430000
C       -1.04580000      -3.50920000      -0.02090000
C        0.29020000      -4.23290000      -0.03920000
C        1.30050000      -3.34480000      -0.01930000
C        0.73510000      -2.00770000       0.01340000
N        1.13710000      -0.74940000       0.03370000
H        0.92920000       1.71090000      -0.14140000
H       -0.70850000       1.83700000      -0.37980000
H       -2.20030000      -0.63850000       0.06190000
H       -1.64670000      -3.77250000       0.85860000
H       -1.64700000      -3.72730000      -0.91240000
H        0.36290000      -5.31040000      -0.06310000
H        2.35950000      -3.55760000      -0.02500000
