18
Properties=species:S:1:pos:R:3 gdb_43772=T pbc="F F F"
O       -0.09100000       0.07980000       0.03440000
C       -0.04600000       1.27580000       0.01360000
N       -1.05460000       2.24980000       0.21760000
C       -0.09580000       3.35920000       0.06420000
C        1.02510000       3.22420000       1.04530000
C        1.00950000       2.33910000      -0.21020000
C       -0.47080000       4.59100000      -0.67440000
C       -1.42310000       4.53230000      -1.84230000
C       -1.86360000       5.16600000      -0.54780000
H       -1.70370000       2.18860000       0.99590000
H        1.77970000       4.00640000       1.02780000
H        0.85930000       2.78040000       2.02320000
H        1.80390000       2.34920000      -0.94280000
H        0.33780000       5.31260000      -0.74120000
H       -1.22350000       5.17480000      -2.69240000
H       -1.84180000       3.56390000      -2.08990000
H       -2.58290000       4.62110000       0.05400000
H       -1.96740000       6.24420000      -0.50020000
