16
Properties=species:S:1:pos:R:3 gdb_27106=T pbc="F F F"
C       -0.08960000       1.48300000      -0.04940000
C        0.07500000      -0.00320000      -0.01270000
C        0.34640000      -0.82430000      -1.05970000
O        0.61230000      -0.53600000      -2.35350000
C       -0.07650000      -1.22740000      -3.31390000
N        0.21960000      -1.04180000      -4.52070000
O        0.43620000      -2.12670000      -0.68500000
C        0.20370000      -2.14680000       0.66350000
C       -0.01310000      -0.89000000       1.12090000
H        0.66170000       1.98530000       0.57010000
H        0.01510000       1.85660000      -1.07080000
H       -1.07360000       1.78740000       0.32460000
H       -0.83960000      -1.89090000      -2.89620000
H       -0.37910000      -1.60830000      -5.11800000
H        0.22520000      -3.12030000       1.12300000
H       -0.21850000      -0.60820000       2.14240000
