27
Properties=species:S:1:pos:R:3 gdb_117657=T pbc="F F F"
C        0.09510000       1.61990000      -0.04460000
C       -0.06530000       0.09720000       0.00060000
C        0.61880000      -0.52800000       1.22410000
C        0.73160000      -2.07230000       1.21530000
C       -0.64890000      -2.71790000       1.05160000
O        1.47240000      -2.49840000       0.06100000
C        1.43120000      -2.57920000       2.52100000
C        1.47840000      -4.11430000       2.59840000
C        2.85640000      -2.02420000       2.69410000
H        1.15150000       1.90810000      -0.09460000
H       -0.40710000       2.04710000      -0.91820000
H       -0.33140000       2.09250000       0.84760000
H       -1.13330000      -0.14760000      -0.00210000
H        0.35640000      -0.35090000      -0.90620000
H        1.63050000      -0.10800000       1.29390000
H        0.10230000      -0.21300000       2.14060000
H       -1.14620000      -2.33900000       0.15710000
H       -0.55870000      -3.79930000       0.94060000
H       -1.28290000      -2.50630000       1.91850000
H        2.31300000      -2.02880000       0.05960000
H        0.82730000      -2.20900000       3.36110000
H        1.92800000      -4.52580000       1.68940000
H        2.08250000      -4.43520000       3.45300000
H        0.48650000      -4.55650000       2.71660000
H        3.51280000      -2.35060000       1.87790000
H        2.89000000      -0.93320000       2.74440000
H        3.29590000      -2.40480000       3.62110000
