18
Properties=species:S:1:pos:R:3 gdb_14443=T pbc="F F F"
O       -0.08330000       1.38720000      -0.03540000
C        0.03990000       0.00780000      -0.03460000
C        0.86330000      -0.79620000      -1.03860000
C       -0.14640000      -1.97760000      -0.82580000
C        0.36140000      -2.95980000       0.23970000
C        0.54250000      -2.07460000       1.50510000
C       -0.28570000      -0.82640000       1.19860000
C       -1.08770000      -0.99380000      -0.07480000
H        0.62320000       1.75440000       0.50710000
H        0.77180000      -0.36490000      -2.03880000
H        1.92180000      -0.98770000      -0.82270000
H       -0.51870000      -2.44410000      -1.73770000
H       -0.39060000      -3.73580000       0.42200000
H        1.28630000      -3.46220000      -0.06180000
H        0.17920000      -2.57720000       2.40690000
H        1.59660000      -1.83260000       1.68180000
H       -0.73740000      -0.25760000       2.00440000
H       -2.15620000      -0.86240000      -0.17710000
