18
Properties=species:S:1:pos:R:3 gdb_12421=T pbc="F F F"
O        0.05360000       1.43250000      -0.02010000
C        0.04990000       0.01970000      -0.01840000
C        0.80370000      -0.55440000       1.19510000
C        0.60530000      -2.06840000       1.30310000
O       -0.77820000      -2.41120000       1.31160000
C       -1.41080000      -2.03210000       0.09770000
C       -1.39570000      -0.51190000      -0.04190000
O       -2.13840000       0.09660000       1.01630000
H       -0.65810000       1.68670000       0.58370000
H        0.55330000      -0.29620000      -0.94170000
H        1.86780000      -0.30760000       1.12580000
H        0.42260000      -0.07410000       2.10460000
H        1.10450000      -2.58340000       0.46530000
H        1.02280000      -2.46090000       2.23420000
H       -0.91170000      -2.50240000      -0.76530000
H       -2.43870000      -2.40170000       0.15130000
H       -1.88220000      -0.20400000      -0.97360000
H       -1.96760000      -0.43440000       1.80500000
