16
Properties=species:S:1:pos:R:3 gdb_2778=T pbc="F F F"
C       -0.03200000       1.60590000      -0.04420000
C        0.07200000       0.08020000       0.04530000
C        0.70890000      -0.53870000      -1.19900000
C        0.69360000      -2.07720000      -1.34560000
O       -0.10800000      -1.96230000      -2.56330000
C       -0.14020000      -0.58680000      -2.45840000
N       -0.71050000       0.27040000      -3.17520000
H        0.96040000       2.06370000      -0.12180000
H       -0.60650000       1.90210000      -0.92580000
H       -0.52060000       2.01630000       0.84440000
H        0.66550000      -0.20790000       0.92220000
H       -0.92560000      -0.35370000       0.18840000
H        1.69380000      -0.09860000      -1.38410000
H        1.64940000      -2.56500000      -1.55080000
H        0.14610000      -2.62150000      -0.57100000
H       -1.21950000      -0.16700000      -3.94550000
