18
Properties=species:S:1:pos:R:3 gdb_20538=T pbc="F F F"
C        0.02520000       1.55860000      -0.00110000
C        0.00620000       0.01960000       0.04100000
C        0.79710000      -0.50620000       1.25290000
C       -1.40080000      -0.51830000       0.02160000
C       -1.98880000      -1.31810000      -0.93840000
N       -3.26270000      -1.54880000      -0.53300000
N       -3.55970000      -0.95330000       0.63570000
C       -2.43510000      -0.32900000       0.97380000
H        1.05340000       1.93500000      -0.02750000
H       -0.50200000       1.93630000      -0.88200000
H       -0.46240000       1.98050000       0.88460000
H        0.50770000      -0.34360000      -0.86570000
H        1.82890000      -0.13930000       1.23380000
H        0.34150000      -0.17340000       2.19190000
H        0.82120000      -1.59980000       1.26480000
H       -1.60110000      -1.72900000      -1.85780000
H       -3.96950000      -2.09310000      -0.99670000
H       -2.40210000       0.23870000       1.89270000
