13
Properties=species:S:1:pos:R:3 gdb_133229=T pbc="F F F"
C        0.06240000       1.44360000       0.04270000
N        0.00560000      -0.01130000       0.00350000
C       -1.12650000      -0.71720000      -0.21580000
N       -1.21800000      -2.00740000      -0.25770000
C       -0.05950000      -2.75700000      -0.06190000
O       -0.01280000      -3.96540000      -0.07640000
C        1.15020000      -1.92100000       0.17320000
F        2.28430000      -2.55450000       0.36590000
N        1.19340000      -0.64040000       0.20630000
H        0.74100000       1.81030000      -0.73120000
H       -0.93830000       1.84040000      -0.13150000
H        0.42240000       1.77580000       1.01930000
H       -2.01730000      -0.10950000      -0.36530000
