20
Properties=species:S:1:pos:R:3 gdb_6472=T pbc="F F F"
C        0.59800000       1.44500000       0.20320000
C       -0.00430000       0.05320000       0.04260000
C        0.71100000      -0.88760000      -0.97750000
C        1.25030000      -1.74570000       0.20210000
O        1.06590000      -3.15400000       0.12810000
C        2.74220000      -1.58160000       0.47410000
O        3.11680000      -2.20940000       1.68240000
C        0.32490000      -0.96590000       1.17820000
H        1.67560000       1.40300000       0.39650000
H        0.44800000       2.04560000      -0.70080000
H        0.13510000       1.97860000       1.04060000
H       -1.07690000       0.15220000      -0.14680000
H        0.01860000      -1.45490000      -1.60590000
H        1.46490000      -0.42920000      -1.62630000
H        0.12400000      -3.34280000       0.17710000
H        3.29670000      -1.99020000      -0.38720000
H        3.00070000      -0.52280000       0.56640000
H        2.73110000      -3.09310000       1.63880000
H        0.80750000      -0.57740000       2.07880000
H       -0.54490000      -1.55620000       1.48590000
