13
Properties=species:S:1:pos:R:3 gdb_129459=T pbc="F F F"
N       -0.02720000       1.28660000      -0.02300000
C        0.04120000      -0.06370000       0.00210000
O        1.08650000      -0.70040000       0.03500000
C       -1.26170000      -0.77080000      -0.00620000
N       -2.43010000      -0.19140000       0.05300000
O       -3.34580000      -1.17950000       0.06280000
N       -2.74720000      -2.43400000       0.00920000
C       -1.45650000      -2.19300000      -0.03950000
N       -0.48050000      -3.12940000      -0.15460000
H        0.82870000       1.81530000      -0.00010000
H       -0.91450000       1.76120000      -0.03660000
H       -0.70860000      -4.07650000       0.09860000
H        0.45120000      -2.79150000       0.04230000
