27
Properties=species:S:1:pos:R:3 gdb_100757=T pbc="F F F"
C        0.78700000       1.73060000       0.37200000
C        0.76700000       0.19850000       0.41220000
C        1.11260000      -0.48600000      -0.92950000
C        2.61120000      -0.33200000      -1.23320000
C        0.62280000      -1.96590000      -0.92480000
C       -0.90660000      -2.03390000      -1.08550000
C        1.32520000      -2.84150000      -1.98120000
C        0.90840000      -4.31390000      -1.94930000
O        1.05440000      -2.25880000      -3.25850000
H        1.77180000       2.12550000       0.10410000
H        0.06760000       2.11280000      -0.36090000
H        0.52160000       2.15140000       1.34730000
H        1.47080000      -0.15820000       1.17760000
H       -0.22510000      -0.12130000       0.74900000
H        0.56180000       0.03000000      -1.72770000
H        3.22250000      -0.90410000      -0.52400000
H        2.84870000      -0.66600000      -2.24530000
H        2.91780000       0.71500000      -1.15420000
H        0.89720000      -2.39800000       0.04900000
H       -1.29930000      -3.02640000      -0.84680000
H       -1.41480000      -1.32310000      -0.42930000
H       -1.18320000      -1.79860000      -2.11720000
H        2.40660000      -2.80340000      -1.78390000
H        1.07200000      -4.74760000      -0.95700000
H       -0.14400000      -4.43970000      -2.21620000
H        1.50790000      -4.89310000      -2.66200000
H        1.44340000      -2.82480000      -3.93220000
