17
Properties=species:S:1:pos:R:3 gdb_36386=T pbc="F F F"
C        0.12980000      -1.15410000      -0.62800000
C        0.03410000      -0.02820000      -0.21990000
C       -0.04880000       1.33790000       0.28620000
C        1.31480000       2.01560000       0.32160000
N        1.73700000       2.73900000      -0.88140000
C        1.52040000       3.48940000       0.35800000
C        0.38260000       4.50140000       0.35390000
C        0.82560000       5.80980000      -0.12930000
N        1.19600000       6.83950000      -0.50000000
H        0.20080000      -2.14740000      -0.99660000
H       -0.73120000       1.91840000      -0.34340000
H       -0.47530000       1.32790000       1.29810000
H        2.06880000       1.43000000       0.84470000
H        2.72510000       2.61030000      -1.07610000
H        2.39720000       3.83200000       0.90440000
H       -0.43150000       4.15240000      -0.28670000
H       -0.02070000       4.62470000       1.36610000
