18
Properties=species:S:1:pos:R:3 gdb_65346=T pbc="F F F"
C        0.19080000       1.48480000      -0.04980000
C        0.04950000      -0.02700000       0.05490000
C        1.29080000      -0.91170000       0.01790000
C        0.52210000      -0.78740000       1.29840000
C        1.09250000      -0.05990000       2.47630000
C        2.38930000      -0.44210000       3.05580000
O        2.25690000       0.73920000       2.26140000
C       -1.13130000      -0.56040000      -0.58090000
N       -2.08390000      -0.97950000      -1.08700000
H        1.10440000       1.81810000       0.44400000
H        0.23010000       1.79050000      -1.09940000
H       -0.66070000       1.98980000       0.41610000
H        1.24090000      -1.84340000      -0.53200000
H        2.23440000      -0.38080000      -0.03900000
H       -0.10120000      -1.63210000       1.57830000
H        0.35990000       0.40000000       3.14100000
H        2.58050000      -0.27190000       4.11360000
H        2.95790000      -1.24880000       2.59680000
