18
Properties=species:S:1:pos:R:3 gdb_97629=T pbc="F F F"
C       -0.10990000       1.53490000      -0.07900000
C       -0.04200000       0.00800000      -0.08900000
C        0.77530000      -0.55970000      -1.28620000
C        2.16770000      -0.07750000      -1.24810000
N        3.25210000       0.31890000      -1.20830000
C        0.73290000      -2.02180000      -1.33260000
C        0.66350000      -3.22330000      -1.34640000
C        0.62620000      -4.68560000      -1.41310000
O        0.61180000      -5.19040000      -2.73870000
H        0.88690000       1.97840000       0.00050000
H       -0.57880000       1.91860000      -0.99170000
H       -0.70220000       1.88320000       0.77160000
H        0.40240000      -0.36690000       0.83800000
H       -1.04470000      -0.42380000      -0.16040000
H        0.33170000      -0.16420000      -2.21130000
H        1.46890000      -5.09280000      -0.83250000
H       -0.29030000      -5.05700000      -0.94180000
H        1.37970000      -4.83090000      -3.19550000
