16
Properties=species:S:1:pos:R:3 gdb_19740=T pbc="F F F"
C       -0.01700000       1.56870000       0.01920000
O        1.36510000       1.98400000      -0.05920000
C        2.08210000       0.86690000      -0.51870000
C        2.29210000      -0.34750000       0.46010000
C        0.94870000      -0.39230000       1.21090000
C        0.06210000       0.04100000       0.00270000
C        1.13990000      -0.19090000      -1.11610000
O        2.02280000      -1.23820000      -0.66440000
H       -0.45380000       1.97060000       0.93880000
H       -0.57410000       1.97590000      -0.83770000
H        2.95940000       1.16150000      -1.09200000
H        3.21990000      -0.56570000       0.98810000
H        0.74180000      -1.40630000       1.55810000
H        0.88750000       0.30270000       2.05220000
H       -0.89120000      -0.47310000      -0.10980000
H        0.83170000      -0.26100000      -2.15820000
