17
Properties=species:S:1:pos:R:3 gdb_67199=T pbc="F F F"
C       -0.06950000       1.55190000      -0.07600000
C        0.09430000       0.07490000       0.01490000
C        0.66080000      -0.97650000      -0.86360000
C        1.38010000      -1.66270000       0.29260000
C        0.35130000      -0.94660000       1.20380000
C       -0.97160000      -1.60660000       0.75020000
C       -2.15830000      -1.11710000       1.44380000
N       -3.08180000      -0.73520000       2.02420000
N       -0.82970000      -0.93670000      -0.58950000
H        0.85460000       2.06960000       0.20240000
H       -0.32690000       1.83330000      -1.10150000
H       -0.87030000       1.90140000       0.58370000
H        0.93550000      -0.92640000      -1.90910000
H        1.41860000      -2.75660000       0.33030000
H        2.38500000      -1.25300000       0.42070000
H        0.55710000      -0.73010000       2.24930000
H       -0.99890000      -2.70210000       0.71650000
