23
Properties=species:S:1:pos:R:3 gdb_73204=T pbc="F F F"
C       -0.47360000       1.49000000       0.16470000
C        0.02330000       0.05840000      -0.01860000
C       -1.06410000      -1.02960000       0.26680000
C       -0.23470000      -1.56560000       1.46170000
C        0.85960000      -0.49030000       1.19920000
C        2.25780000      -1.03610000       0.87760000
C        2.29200000      -1.76450000      -0.44240000
C        1.57330000      -1.33960000      -1.48140000
C        0.71230000      -0.10550000      -1.38720000
H        0.35960000       2.20290000       0.15740000
H       -1.16390000       1.77580000      -0.63850000
H       -1.00490000       1.60730000       1.11560000
H       -2.04320000      -0.61950000       0.52990000
H       -1.20120000      -1.74840000      -0.54560000
H       -0.72230000      -1.49430000       2.43700000
H        0.12080000      -2.59120000       1.33120000
H        0.93410000       0.24360000       2.00770000
H        2.97880000      -0.20470000       0.85210000
H        2.58920000      -1.69200000       1.69180000
H        2.93430000      -2.63610000      -0.53540000
H        1.62260000      -1.85790000      -2.43520000
H       -0.05110000      -0.10320000      -2.17530000
H        1.33870000       0.77990000      -1.57970000
