21
Properties=species:S:1:pos:R:3 gdb_109376=T pbc="F F F"
C        0.02680000       1.53490000      -0.07730000
C        0.04510000       0.01140000       0.05890000
O        0.56620000      -0.47960000      -1.16650000
C        0.88800000      -1.85870000      -1.13440000
C        2.03410000      -2.12220000      -0.15930000
C        1.74730000      -1.43880000       1.14930000
C        0.82790000      -0.48060000       1.26390000
C        0.47390000       0.14630000       2.58740000
O        1.05240000      -0.58930000       3.65040000
H        1.04740000       1.92540000      -0.12710000
H       -0.49380000       1.80820000      -0.99870000
H       -0.49170000       2.00420000       0.76320000
H       -1.00170000      -0.33630000       0.16900000
H        0.00530000      -2.45050000      -0.83980000
H        1.15250000      -2.13410000      -2.15940000
H        2.15430000      -3.20260000      -0.00740000
H        2.98220000      -1.76420000      -0.58420000
H        2.28860000      -1.75940000       2.03290000
H        0.81730000       1.19420000       2.60410000
H       -0.62690000       0.18310000       2.68330000
H        0.94630000      -0.07730000       4.45670000
