18
Properties=species:S:1:pos:R:3 gdb_101547=T pbc="F F F"
C        0.10200000       1.64780000      -0.07880000
C        0.00900000       0.11700000      -0.01200000
C        0.48990000      -0.43850000       1.32790000
O       -0.41770000       0.01720000       2.32400000
N       -1.35310000      -0.34680000      -0.23720000
C       -1.82180000      -0.73530000      -1.43800000
O       -1.20060000      -0.77380000      -2.48810000
C       -3.29170000      -1.16570000      -1.40180000
O       -3.97240000      -1.14780000      -0.40890000
H        1.14240000       1.97090000       0.03000000
H       -0.26870000       2.00540000      -1.04240000
H       -0.48610000       2.10550000       0.72050000
H        0.61940000      -0.31570000      -0.81040000
H        0.50820000      -1.53680000       1.28230000
H        1.51310000      -0.08470000       1.52320000
H       -0.20590000      -0.41350000       3.15660000
H       -1.99470000      -0.35140000       0.54460000
H       -3.66180000      -1.49460000      -2.39340000
