15
Properties=species:S:1:pos:R:3 gdb_28028=T pbc="F F F"
N        0.69680000       1.19530000      -0.75940000
C        0.14030000       0.03950000      -0.27510000
N       -0.91590000      -0.57900000      -0.70640000
C       -1.07170000      -1.63370000       0.19670000
C       -2.20790000      -2.60090000       0.04360000
C       -2.22040000      -3.65640000       1.05040000
C       -2.22840000      -4.52430000       1.88110000
C       -0.08770000      -1.58890000       1.11760000
O        0.71400000      -0.49630000       0.82190000
H        1.68870000       1.28910000      -0.59820000
H        0.41770000       1.40100000      -1.70690000
H       -3.15500000      -2.04550000       0.07490000
H       -2.16500000      -3.04410000      -0.96050000
H       -2.24300000      -5.29460000       2.61170000
H        0.19230000      -2.17880000       1.97040000
