16
Properties=species:S:1:pos:R:3 gdb_133484=T pbc="F F F"
C        0.00010000       1.49220000       0.02570000
C        0.01220000       0.03710000       0.00050000
C        0.03220000      -1.16550000      -0.02440000
C        0.02160000      -2.62520000      -0.04560000
C       -1.40130000      -3.20150000       0.09380000
C        0.69160000      -3.15170000      -1.31940000
F        1.94140000      -2.69200000      -1.44600000
F        0.75810000      -4.49450000      -1.29310000
F        0.01420000      -2.80460000      -2.42120000
H        0.88080000       1.88800000       0.54290000
H       -0.00260000       1.90370000      -0.98940000
H       -0.88840000       1.87300000       0.54100000
H        0.64260000      -3.00530000       0.77580000
H       -1.37340000      -4.29350000       0.08950000
H       -1.84470000      -2.86200000       1.03170000
H       -2.03120000      -2.85990000      -0.73040000
