17
Properties=species:S:1:pos:R:3 gdb_112061=T pbc="F F F"
C        0.02610000       1.58930000       0.01680000
C        0.09490000       0.06110000       0.05810000
C        0.68730000      -0.52880000      -1.22470000
N        2.09210000      -0.13040000      -1.41620000
C        2.75630000      -1.18790000      -1.59760000
O        2.12580000      -2.39590000      -1.59570000
C        0.74160000      -2.10440000      -1.29870000
C        0.35900000      -2.80770000      -0.06960000
N        0.03150000      -3.36070000       0.89020000
H        1.02010000       2.01870000      -0.12940000
H       -0.61350000       1.93490000      -0.80300000
H       -0.38720000       1.98170000       0.95010000
H        0.69940000      -0.26830000       0.91060000
H       -0.90740000      -0.35770000       0.20630000
H        0.10990000      -0.15930000      -2.08060000
H        3.82450000      -1.25210000      -1.76900000
H        0.13350000      -2.49350000      -2.11950000
