16
Properties=species:S:1:pos:R:3 gdb_33342=T pbc="F F F"
N       -0.00060000      -3.77850000      -0.12870000
C        0.00440000      -2.61700000      -0.08830000
C        0.01030000      -1.25350000      -0.03990000
C        0.01370000      -0.04420000       0.00080000
C        0.03030000       1.40100000       0.06950000
C       -0.21200000       2.09190000       1.47070000
C        1.13990000       2.79810000       1.33220000
C        2.23970000       1.78560000       1.19120000
C        1.39990000       2.11270000      -0.00930000
H       -0.66730000       1.80480000      -0.67000000
H       -1.07200000       2.76220000       1.43320000
H       -0.31990000       1.41790000       2.32450000
H        1.33410000       3.82520000       1.61320000
H        3.24580000       2.19040000       1.16410000
H        2.16330000       0.81290000       1.67110000
H        1.82010000       2.50860000      -0.92500000
