16
Properties=species:S:1:pos:R:3 gdb_53202=T pbc="F F F"
C        0.00290000       1.51030000      -0.01650000
C        0.01610000       0.05620000       0.03360000
C        0.02750000      -1.14570000       0.07140000
C        0.03340000      -2.60100000       0.11770000
N        0.55590000      -3.12070000       1.41010000
C       -0.36290000      -3.87100000       1.87530000
N       -1.50990000      -3.99570000       1.10330000
C       -1.37360000      -3.21990000      -0.04790000
N       -2.15650000      -3.04380000      -1.02700000
H        0.66110000       1.88730000      -0.80680000
H       -1.00550000       1.89030000      -0.21390000
H        0.34160000       1.94150000       0.93200000
H        0.67390000      -2.99010000      -0.68530000
H       -0.29240000      -4.40950000       2.81540000
H       -2.33120000      -4.52130000       1.35130000
H       -3.02750000      -3.56670000      -0.92220000
