18
Properties=species:S:1:pos:R:3 gdb_77049=T pbc="F F F"
C        0.02070000       1.60860000      -0.04430000
C        0.07880000       0.09200000       0.02560000
N        0.72710000      -0.61330000      -1.11390000
C       -0.15580000      -1.25030000      -2.08000000
C        0.58550000      -1.96250000      -3.11670000
C        1.19390000      -2.56780000      -3.95710000
C        1.52570000      -1.49510000      -0.22910000
C        1.12380000      -0.57910000       0.93430000
O        1.48830000      -0.41670000       2.05920000
H        1.00670000       2.01960000      -0.27550000
H       -0.68030000       1.94050000      -0.81680000
H       -0.31320000       2.01380000       0.91580000
H       -0.91840000      -0.32400000       0.26220000
H       -0.85820000      -1.95790000      -1.59320000
H       -0.77340000      -0.47070000      -2.54360000
H        1.73140000      -3.09510000      -4.70600000
H        1.11350000      -2.51000000      -0.10210000
H        2.58830000      -1.57290000      -0.47630000
