21
Properties=species:S:1:pos:R:3 gdb_76301=T pbc="F F F"
C       -0.36720000       1.44340000       0.16530000
C       -0.06490000      -0.04600000       0.01480000
C        0.77350000      -0.46980000      -1.23620000
C        0.77320000       0.38080000      -2.49620000
C        2.06670000      -0.53070000      -0.33970000
C        2.91420000       0.64430000      -0.36270000
C        3.60550000       1.63030000      -0.31630000
C        1.10750000      -0.55920000       0.91120000
O        1.47280000       0.13970000       2.06330000
H        0.51850000       2.06750000       0.01550000
H       -1.12400000       1.76390000      -0.55770000
H       -0.75090000       1.64710000       1.16950000
H       -0.99460000      -0.61050000       0.13870000
H        0.51670000      -1.50090000      -1.50010000
H        1.07820000       1.41030000      -2.29260000
H        1.46490000      -0.02720000      -3.24120000
H       -0.22470000       0.40380000      -2.94720000
H        2.68270000      -1.42530000      -0.47160000
H        4.23370000       2.48670000      -0.30880000
H        0.93750000      -1.59520000       1.21730000
H        1.93540000       0.94190000       1.78810000
