17
Properties=species:S:1:pos:R:3 gdb_16231=T pbc="F F F"
O        0.31370000       1.11690000      -0.60810000
C        0.07820000      -0.16070000      -0.02660000
C        0.54010000      -0.29110000       1.40410000
C       -0.38850000      -0.83220000       2.19210000
C       -1.65060000      -1.18380000       1.44610000
C       -1.40710000      -0.58290000       0.05770000
C       -2.44090000       0.19010000      -0.67600000
N       -2.09340000      -1.18070000      -1.09320000
H       -0.08090000       1.77260000      -0.02140000
H        0.63110000      -0.84760000      -0.68300000
H        1.53440000       0.01900000       1.70510000
H       -0.26600000      -1.03460000       3.25090000
H       -1.78850000      -2.27040000       1.37510000
H       -2.55150000      -0.78910000       1.93170000
H       -3.43450000       0.29940000      -0.24810000
H       -2.10640000       1.01790000      -1.29390000
H       -1.48790000      -1.13660000      -1.91110000
