23
Properties=species:S:1:pos:R:3 gdb_57653=T pbc="F F F"
C        0.23130000       1.61290000       0.25440000
C        0.12400000       0.08510000       0.11460000
C        0.72630000      -0.58200000       1.36830000
C       -1.37740000      -0.31700000      -0.05670000
C       -2.23660000      -0.00580000       1.14650000
O       -2.94590000       0.96470000       1.24660000
C        0.86480000      -0.46060000      -1.11050000
C        0.82730000       0.18120000      -2.47400000
C        2.11580000       0.15400000      -1.68690000
H        1.26210000       1.91910000       0.45440000
H       -0.11330000       2.13230000      -0.64470000
H       -0.38600000       1.96730000       1.08420000
H        0.27340000      -0.20480000       2.29080000
H        0.59110000      -1.66920000       1.34590000
H        1.80100000      -0.38150000       1.42030000
H       -1.79330000       0.21000000      -0.92030000
H       -1.42910000      -1.39720000      -0.24580000
H       -2.17420000      -0.74440000       1.97850000
H        0.85320000      -1.54910000      -1.13110000
H        0.73240000      -0.46410000      -3.34050000
H        0.33040000       1.13880000      -2.58470000
H        2.47010000       1.09420000      -1.28050000
H        2.90860000      -0.51140000      -2.01090000
