14
Properties=species:S:1:pos:R:3 gdb_43660=T pbc="F F F"
O       -0.00940000       0.00860000       0.52190000
C       -0.01600000       1.16970000       0.22660000
C       -1.22600000       2.04950000      -0.05730000
C       -0.67450000       3.50230000      -0.06760000
N        0.77560000       3.31120000      -0.15340000
C        1.24650000       2.04630000       0.05640000
O        2.39660000       1.68310000       0.09870000
C       -1.18880000       4.32780000      -1.15660000
C       -1.61380000       5.01780000      -2.04310000
H       -1.62130000       1.78500000      -1.04290000
H       -2.02090000       1.89870000       0.67430000
H       -0.92810000       3.99140000       0.88330000
H        1.40350000       4.09080000      -0.27810000
H       -1.99010000       5.62410000      -2.83040000
