21
Properties=species:S:1:pos:R:3 gdb_116037=T pbc="F F F"
C       -0.05110000       1.55380000       0.02710000
C        0.02240000       0.02560000      -0.00620000
C        0.72700000      -0.56630000       1.20880000
O       -0.03020000      -0.21840000       2.37190000
C        0.67380000      -0.48360000       3.56910000
C        1.28180000      -1.85830000       3.59400000
C        1.37200000      -2.60220000       2.49340000
C        0.86810000      -2.09690000       1.16140000
O       -0.35450000      -2.74180000       0.80520000
H        0.94950000       2.00140000       0.03160000
H       -0.58330000       1.93930000      -0.84780000
H       -0.57430000       1.89540000       0.92380000
H       -0.98070000      -0.40720000      -0.06730000
H        0.55730000      -0.31100000      -0.90280000
H        1.73910000      -0.13160000       1.29370000
H        1.45970000       0.27830000       3.73140000
H       -0.04910000      -0.36840000       4.38540000
H        1.64520000      -2.21610000       4.55430000
H        1.77370000      -3.61080000       2.52540000
H        1.57210000      -2.36470000       0.36460000
H       -0.98460000      -2.51250000       1.49920000
