16
Properties=species:S:1:pos:R:3 gdb_23213=T pbc="F F F"
O       -0.10730000       1.34620000       0.47200000
N       -0.01010000      -0.05080000       0.51970000
C       -1.04230000      -0.59790000       0.03010000
C       -2.37860000      -0.14770000      -0.53390000
C       -2.86630000      -1.63730000      -0.42420000
O       -3.51290000      -2.23710000      -1.51240000
C       -1.41110000      -2.04230000      -0.09830000
C       -0.63830000      -3.16710000      -0.64950000
O       -1.00550000      -3.10820000       0.73090000
H        0.71080000       1.62370000       0.89950000
H       -2.92190000       0.59560000       0.05300000
H       -2.31390000       0.20590000      -1.56900000
H       -3.51780000      -1.78730000       0.44040000
H       -2.95650000      -2.13010000      -2.29180000
H       -1.15680000      -3.92400000      -1.23680000
H        0.42110000      -3.03130000      -0.85890000
