20
Properties=species:S:1:pos:R:3 gdb_116575=T pbc="F F F"
C        1.06380000       0.24700000       0.06360000
C       -0.42050000       0.46000000      -0.23640000
N       -1.13490000      -0.81190000      -0.16950000
C       -1.91870000      -1.13220000      -1.09550000
O       -2.22640000      -0.39690000      -2.23520000
C       -3.16570000      -1.28590000      -2.90610000
C       -4.09300000      -1.72400000      -1.74980000
C       -2.75000000      -2.37920000      -1.26510000
C       -2.47040000      -2.66070000      -2.78530000
H        1.59600000       1.20360000       0.08290000
H        1.19280000      -0.24480000       1.03200000
H        1.52760000      -0.38640000      -0.69930000
H       -0.84920000       1.12120000       0.52860000
H       -0.54510000       0.96330000      -1.20360000
H       -3.49480000      -0.82800000      -3.83610000
H       -4.53570000      -0.93700000      -1.13600000
H       -4.83850000      -2.46310000      -2.04700000
H       -2.68390000      -3.12970000      -0.48320000
H       -3.06790000      -3.48540000      -3.17690000
H       -1.43230000      -2.72930000      -3.11640000
