20
Properties=species:S:1:pos:R:3 gdb_114751=T pbc="F F F"
C       -0.26080000       0.63150000       0.50280000
O        0.72690000      -0.31550000       0.13050000
C        0.88560000      -0.46760000      -1.27800000
C        2.34930000      -0.78880000      -1.62910000
N        2.51230000      -2.25330000      -1.75450000
C        2.00640000      -2.98680000      -0.58400000
C        1.15480000      -2.82780000      -1.79380000
C        0.10210000      -1.72570000      -1.77970000
O       -1.05310000      -2.00950000      -1.02000000
H       -0.00690000       1.63480000       0.13030000
H       -1.25290000       0.35370000       0.12700000
H       -0.28190000       0.65750000       1.59530000
H        0.54320000       0.44500000      -1.77960000
H        2.60380000      -0.34870000      -2.59940000
H        3.03410000      -0.38350000      -0.87910000
H        2.49650000      -3.93930000      -0.40500000
H        1.75680000      -2.42190000       0.30930000
H        0.99970000      -3.67130000      -2.46000000
H       -0.25250000      -1.55370000      -2.80150000
H       -0.75960000      -2.05110000      -0.10140000
