13
Properties=species:S:1:pos:R:3 gdb_45387=T pbc="F F F"
N       -0.01000000       1.23140000      -0.46610000
C        0.03170000       0.05440000      -0.06030000
O        1.04790000      -0.69750000       0.51780000
C        0.22920000      -1.89420000       0.57210000
C       -0.60060000      -1.98710000       1.85360000
O       -1.64920000      -1.15760000       1.27670000
C       -0.97630000      -1.09360000       0.00440000
C       -1.80270000      -1.41560000      -1.13770000
N       -2.44280000      -1.69470000      -2.05770000
H        0.87040000       1.72800000      -0.32140000
H        0.71480000      -2.75800000       0.12620000
H       -0.97830000      -2.98980000       2.07880000
H       -0.14690000      -1.53610000       2.73990000
