17
Properties=species:S:1:pos:R:3 gdb_13493=T pbc="F F F"
C        0.01980000       1.28650000       0.85580000
C       -0.15290000       0.37390000      -0.35990000
O        0.85200000      -0.63010000      -0.41070000
C       -1.55800000      -0.24660000      -0.39750000
N       -1.89420000      -1.03890000      -1.61390000
C       -2.29230000      -2.23740000      -0.82880000
C       -1.73320000      -1.54200000       0.41790000
O       -1.45130000      -1.87530000       1.53170000
H        1.03980000       1.67840000       0.88460000
H       -0.67640000       2.13110000       0.82490000
H       -0.16670000       0.73060000       1.78200000
H       -0.02150000       0.94900000      -1.28400000
H        0.88010000      -1.05670000       0.45390000
H       -2.31120000       0.50890000      -0.12760000
H       -2.64890000      -0.64190000      -2.16020000
H       -3.37230000      -2.42560000      -0.74990000
H       -1.79310000      -3.16590000      -1.12640000
