18
Properties=species:S:1:pos:R:3 gdb_77298=T pbc="F F F"
C        0.01460000       1.43800000       0.00360000
N        0.03140000      -0.00270000      -0.06960000
C       -1.03230000      -1.01570000      -0.06750000
C       -1.96240000      -1.00320000      -1.28740000
C       -2.95710000       0.13620000      -1.23540000
O       -3.03660000       1.02170000      -2.04690000
C        0.09340000      -2.09270000      -0.05430000
C        1.07360000      -0.89790000      -0.02410000
O        2.26520000      -0.74400000       0.02990000
H        1.05400000       1.77460000       0.01030000
H       -0.49770000       1.87870000      -0.85770000
H       -0.47500000       1.78940000       0.92070000
H       -1.62650000      -0.99940000       0.85700000
H       -1.38640000      -0.93990000      -2.21470000
H       -2.53460000      -1.94160000      -1.28440000
H       -3.63730000       0.10770000      -0.35120000
H        0.12730000      -2.72900000       0.83160000
H        0.15810000      -2.70840000      -0.95360000
