19
Properties=species:S:1:pos:R:3 gdb_80299=T pbc="F F F"
C       -0.31350000       1.47970000      -0.10660000
C       -0.03090000      -0.00110000       0.01930000
C        1.33330000      -0.60550000      -0.19160000
O        2.44060000       0.27460000      -0.19150000
C        2.64470000       0.80710000       1.05300000
O        3.51790000       1.59170000       1.27390000
C        1.59600000       0.25250000       2.02170000
C        0.71170000      -0.65310000       1.18440000
C        0.18210000      -1.92610000       1.80090000
H        0.53990000       2.10000000       0.17610000
H       -0.56530000       1.73240000      -1.14160000
H       -1.16070000       1.76950000       0.52380000
H       -0.83140000      -0.63140000      -0.36270000
H        1.50000000      -1.47060000      -0.82240000
H        2.11160000      -0.30430000       2.81140000
H        1.08260000       1.08930000       2.50440000
H       -0.55870000      -1.71260000       2.58000000
H       -0.30350000      -2.55710000       1.04990000
H        0.98820000      -2.51120000       2.25870000
