18
Properties=species:S:1:pos:R:3 gdb_79984=T pbc="F F F"
C        0.01820000       1.47270000      -0.17790000
N        0.01930000       0.02040000       0.01440000
C       -1.14910000      -0.52320000       0.79700000
C       -0.79250000      -1.98640000       0.85830000
C        0.53050000      -1.97320000       1.08840000
C        0.88250000      -0.50300000       1.15560000
C        2.30280000      -0.03580000       1.31530000
C       -0.33470000      -0.00680000       2.06080000
O       -0.49780000       0.69780000       3.00150000
H        0.97320000       1.76990000      -0.62000000
H       -0.77120000       1.72290000      -0.89260000
H       -0.14260000       2.06610000       0.73710000
H       -2.15030000      -0.18990000       0.53320000
H       -1.48230000      -2.81520000       0.80540000
H        1.21380000      -2.78970000       1.27270000
H        2.89680000      -0.28160000       0.42920000
H        2.35470000       1.04370000       1.48150000
H        2.76180000      -0.52620000       2.17880000
