15
Properties=species:S:1:pos:R:3 gdb_76589=T pbc="F F F"
O        0.03680000       1.35150000       0.39190000
C        0.04050000      -0.02090000       0.14270000
C       -0.39440000      -0.84510000       1.31210000
O       -0.71210000      -0.19820000       2.48470000
C       -1.31800000      -0.74120000       0.07120000
C       -2.49460000       0.05520000       0.10190000
C       -3.47380000       0.77190000       0.11460000
C       -4.57910000       1.56260000       0.13340000
C       -5.55860000       2.26980000       0.14650000
H       -0.68750000       1.75590000      -0.10300000
H        0.83120000      -0.36120000      -0.52190000
H        0.05550000      -1.81940000       1.47430000
H       -0.58310000       0.74720000       2.31360000
H       -1.35130000      -1.62240000      -0.56350000
H       -6.42260000       2.88670000       0.16200000
