16
Properties=species:S:1:pos:R:3 gdb_2471=T pbc="F F F"
O       -0.46370000       1.17260000       0.85310000
C       -0.00600000       0.09830000       0.05380000
C        0.92770000      -0.85770000       0.84830000
C       -0.01820000      -1.88490000       1.44180000
N       -1.22920000      -1.26400000       2.03580000
C       -1.29040000      -1.85700000       0.67590000
C       -1.17520000      -0.81160000      -0.41770000
H       -0.92120000       0.75130000       1.59760000
H        0.51340000       0.55520000      -0.79240000
H        1.63680000      -1.36230000       0.18070000
H        1.49760000      -0.29820000       1.59510000
H        0.36270000      -2.79770000       1.88800000
H       -1.64840000      -1.89920000       2.70900000
H       -1.89210000      -2.74830000       0.53060000
H       -2.08330000      -0.21960000      -0.56070000
H       -0.93310000      -1.30590000      -1.36640000
