19
Properties=species:S:1:pos:R:3 gdb_110076=T pbc="F F F"
C       -0.26360000       1.52730000      -0.13870000
C        0.17950000       0.08170000       0.11580000
C        0.77150000      -0.54920000      -1.12890000
C        0.95440000      -2.04970000      -1.30780000
C        0.51060000      -3.02370000      -0.28030000
O        1.14960000      -4.00350000       0.01920000
C       -0.08040000      -1.27050000      -2.14680000
C       -1.48890000      -1.45290000      -1.94100000
C       -2.67610000      -1.58460000      -1.79670000
H        0.57420000       2.14470000      -0.48100000
H       -1.04500000       1.56600000      -0.90400000
H       -0.66130000       1.98090000       0.77380000
H        0.92740000       0.05560000       0.91770000
H       -0.67720000      -0.50120000       0.46580000
H        1.58160000       0.03030000      -1.56580000
H        1.84550000      -2.37240000      -1.83550000
H       -0.46410000      -2.80480000       0.20190000
H        0.20340000      -1.14870000      -3.18810000
H       -3.72280000      -1.71220000      -1.67000000
