23
Properties=species:S:1:pos:R:3 gdb_57490=T pbc="F F F"
C       -0.15710000       1.49640000       0.02200000
C       -0.01510000      -0.02970000       0.01170000
C        0.68780000      -0.49930000       1.29330000
O       -1.36040000      -0.52500000      -0.01430000
C        0.76060000      -0.49240000      -1.24730000
C        0.86690000      -2.03290000      -1.44120000
C        0.44640000      -2.25420000      -2.91270000
O        0.54690000      -0.99030000      -3.54620000
C        0.13030000      -0.03740000      -2.58120000
H        0.82400000       1.97930000      -0.01340000
H       -0.74470000       1.83780000      -0.83390000
H       -0.67170000       1.81870000       0.93140000
H        0.11660000      -0.18080000       2.17020000
H        0.77790000      -1.59090000       1.32280000
H        1.69740000      -0.08290000       1.36770000
H       -1.33680000      -1.46840000       0.17550000
H        1.77220000      -0.07760000      -1.18100000
H        1.88500000      -2.38280000      -1.25740000
H        0.21190000      -2.58970000      -0.76350000
H        1.08780000      -2.95500000      -3.45380000
H       -0.58940000      -2.62720000      -2.96290000
H       -0.96670000      -0.02630000      -2.48780000
H        0.46920000       0.94450000      -2.91910000
