16
Properties=species:S:1:pos:R:3 gdb_10027=T pbc="F F F"
C       -0.25210000       1.30780000      -0.08240000
O        0.15980000      -0.03430000       0.08330000
C        0.70490000      -0.60210000      -1.10210000
C        1.31710000      -1.88630000      -0.74890000
C        1.84260000      -2.93110000      -0.48000000
C       -0.29440000      -0.76190000      -2.17160000
C       -1.11570000      -0.87210000      -3.04450000
C       -2.10720000      -1.02240000      -4.09900000
H        0.58670000       1.95230000      -0.38950000
H       -1.05480000       1.40060000      -0.82590000
H       -0.62020000       1.64320000       0.88930000
H        1.50360000       0.06310000      -1.47950000
H        2.29850000      -3.85900000      -0.23700000
H       -1.93500000      -1.94070000      -4.67080000
H       -3.11910000      -1.07600000      -3.68320000
H       -2.07740000      -0.18150000      -4.80020000
