15
Properties=species:S:1:pos:R:3 gdb_42854=T pbc="F F F"
O       -0.44200000       0.04950000       0.24240000
C       -0.10390000       1.17700000       0.11720000
C       -0.51480000       2.63010000       0.47950000
C        0.96740000       2.78000000       0.95630000
C        1.05110000       2.05950000      -0.42950000
N       -0.10210000       2.90140000      -0.96200000
C        0.09170000       4.25100000      -1.47520000
C        0.88600000       5.26780000      -0.74660000
N        1.49660000       6.09180000      -0.21270000
H       -1.43100000       3.02920000       0.90950000
H        1.35250000       3.79460000       0.98290000
H        1.27350000       2.21280000       1.83960000
H        1.91910000       1.80840000      -1.03540000
H        0.54060000       4.15160000      -2.47020000
H       -0.90540000       4.67880000      -1.63000000
