19
Properties=species:S:1:pos:R:3 gdb_83618=T pbc="F F F"
O        0.08500000       1.42070000       0.00450000
C       -0.01960000       0.02610000       0.05270000
C       -1.45380000      -0.59150000       0.02630000
C       -1.57830000      -2.04150000       0.59590000
C       -1.61500000      -2.62280000      -0.85510000
C       -1.18910000      -1.25120000      -1.36940000
C       -1.33170000      -0.47700000      -2.66980000
O       -0.07450000       0.21820000      -2.41310000
C        0.25400000      -0.67290000      -1.31400000
H       -0.06980000       1.65800000      -0.92240000
H        0.59550000      -0.33140000       0.88620000
H       -2.29000000       0.08340000       0.21610000
H       -0.70230000      -2.35320000       1.17290000
H       -2.46790000      -2.23200000       1.19850000
H       -0.96750000      -3.47370000      -1.08640000
H       -2.63560000      -2.87460000      -1.16050000
H       -1.25560000      -1.08210000      -3.58350000
H       -2.17710000       0.21450000      -2.76180000
H        1.18390000      -1.22110000      -1.49280000
