15
Properties=species:S:1:pos:R:3 gdb_18091=T pbc="F F F"
C        0.02390000       1.56500000       0.19520000
C        1.44670000       1.98700000      -0.08670000
C        2.21660000       0.98240000      -0.49890000
C        1.46860000      -0.32910000      -0.54930000
N        1.99450000      -1.32340000       0.41370000
C        1.11700000      -1.40350000       1.32350000
O       -0.02860000      -0.68360000       1.23960000
C        0.04670000       0.03830000      -0.01800000
H       -0.30220000       1.80960000       1.21220000
H       -0.68590000       2.05050000      -0.48640000
H        1.77500000       3.01370000       0.03240000
H        3.26690000       1.04810000      -0.75520000
H        1.47090000      -0.77080000      -1.55160000
H        1.18700000      -2.02110000       2.21250000
H       -0.77920000      -0.31720000      -0.63780000
