17
Properties=species:S:1:pos:R:3 gdb_44227=T pbc="F F F"
O       -0.16300000       0.31280000      -0.73090000
C       -0.08700000       1.37220000      -0.18640000
C       -1.12410000       2.35900000       0.40030000
C        0.04710000       3.26550000       0.87410000
C        1.09090000       2.27570000       0.25670000
O        1.41130000       3.22230000      -0.79110000
C        0.56300000       4.21730000      -0.19180000
C       -0.12940000       5.25430000      -1.00670000
C        1.01480000       5.63330000      -0.07060000
H       -1.83040000       2.79630000      -0.31020000
H       -1.68860000       1.89750000       1.21700000
H        0.05550000       3.58950000       1.91230000
H        1.97360000       1.84830000       0.73760000
H        0.07710000       5.26100000      -2.07150000
H       -1.14040000       5.54210000      -0.73670000
H        0.78200000       6.17600000       0.83990000
H        1.96670000       5.88630000      -0.52460000
