22
Properties=species:S:1:pos:R:3 gdb_58907=T pbc="F F F"
C        0.04640000       1.55590000      -0.03920000
C        0.02990000       0.01970000      -0.00350000
C        0.58770000      -0.58640000      -1.29880000
C        0.74930000      -0.49300000       1.22350000
C        2.28640000      -0.41120000       1.41230000
C        2.10430000      -1.70130000       2.18740000
C        0.81330000      -1.62920000       2.93600000
C        0.16450000      -0.29210000       2.64350000
N        0.81730000      -2.04390000       1.49100000
H        1.07090000       1.93620000      -0.12330000
H       -0.51610000       1.92850000      -0.90090000
H       -0.39880000       1.98700000       0.86340000
H       -1.01460000      -0.30920000       0.09260000
H        1.60140000      -0.22660000      -1.50710000
H        0.62030000      -1.67740000      -1.23390000
H       -0.03980000      -0.30960000      -2.15190000
H        2.82040000      -0.59100000       0.47640000
H        2.70400000       0.46760000       1.91520000
H        2.84520000      -2.46580000       2.39390000
H        0.56290000      -2.33830000       3.71720000
H        0.46510000       0.59200000       3.21580000
H       -0.92610000      -0.37610000       2.63510000
