23
Properties=species:S:1:pos:R:3 gdb_81685=T pbc="F F F"
C       -0.22770000       1.43550000       0.06760000
C        0.01300000      -0.06820000      -0.00070000
C        0.87530000      -0.57400000      -1.20200000
C        2.13200000      -0.35280000      -0.30740000
C        1.16990000      -0.62460000       0.88130000
O        0.96870000      -2.01340000       1.10650000
C        1.08080000      -2.82680000      -0.06950000
C        0.30120000      -4.10630000       0.19350000
C        0.62780000      -2.08330000      -1.35200000
H        0.69310000       2.01390000      -0.05830000
H       -0.92360000       1.75350000      -0.71670000
H       -0.66420000       1.71740000       1.03230000
H       -0.93050000      -0.60480000       0.14690000
H        0.80260000      -0.04120000      -2.15420000
H        2.99870000      -1.00530000      -0.43540000
H        2.46970000       0.68470000      -0.31460000
H        1.36780000      -0.17360000       1.85720000
H        2.14230000      -3.08960000      -0.19410000
H       -0.76300000      -3.88590000       0.32280000
H        0.41400000      -4.80270000      -0.64370000
H        0.66340000      -4.59480000       1.10240000
H       -0.43770000      -2.26100000      -1.54540000
H        1.18220000      -2.49430000      -2.20400000
