17
Properties=species:S:1:pos:R:3 gdb_8695=T pbc="F F F"
N       -0.18920000       1.41130000       0.16680000
C        0.07780000      -0.00980000      -0.05850000
C        0.86130000      -0.55000000       1.16300000
O        0.19180000      -0.16760000       2.34460000
C        0.95450000      -2.07960000       1.15650000
N        1.71480000      -2.53230000       2.31240000
C        2.22230000       0.05710000       1.13000000
N        3.23720000       0.60380000       1.04530000
H        0.62940000       1.96920000      -0.05610000
H       -0.95140000       1.73830000      -0.41450000
H       -0.88000000      -0.53800000      -0.08900000
H        0.62590000      -0.23430000      -0.98430000
H       -0.15330000       0.72190000       2.15200000
H       -0.08320000      -2.45130000       1.10840000
H        1.46860000      -2.40190000       0.24410000
H        1.22450000      -2.26690000       3.16050000
H        1.79530000      -3.54290000       2.31020000
