21
Properties=species:S:1:pos:R:3 gdb_112659=T pbc="F F F"
C       -0.52190000       1.29650000      -0.29050000
C       -0.18580000      -0.19570000      -0.31440000
C        1.03470000      -0.51920000      -1.18360000
C        1.31410000      -2.02160000      -1.30410000
C        0.67320000      -2.39630000      -2.63620000
O        0.37230000      -3.49540000      -3.02080000
C        0.47030000      -1.09240000      -3.41410000
C       -0.95740000      -0.94210000      -3.93910000
O        0.85880000      -0.04530000      -2.53670000
H        0.30340000       1.87900000       0.13420000
H       -0.70200000       1.66500000      -1.30340000
H       -1.41320000       1.49120000       0.31290000
H        0.01960000      -0.55410000       0.70290000
H       -1.04880000      -0.77170000      -0.67470000
H        1.90130000       0.02470000      -0.79110000
H        2.38840000      -2.22750000      -1.38080000
H        0.91480000      -2.62830000      -0.48910000
H        1.16450000      -1.09850000      -4.26810000
H       -1.68090000      -0.93550000      -3.11890000
H       -1.05840000      -0.00800000      -4.49710000
H       -1.19090000      -1.78130000      -4.60050000
