21
Properties=species:S:1:pos:R:3 gdb_107677=T pbc="F F F"
O        0.14680000       1.36240000       0.29630000
C        0.03410000       0.01560000      -0.14640000
C       -1.38190000      -0.50590000      -0.06770000
C       -1.86170000      -1.08280000       1.24300000
C       -1.60590000      -1.99900000       0.06670000
C       -2.78580000      -2.65530000      -0.64790000
C       -3.49290000      -1.67710000      -1.59410000
O       -3.63820000      -0.39300000      -1.00970000
C       -2.38970000       0.26680000      -0.90720000
H       -0.18980000       1.39410000       1.19840000
H        0.38240000       0.02440000      -1.18630000
H        0.70630000      -0.65030000       0.41850000
H       -1.17100000      -1.11900000       2.08040000
H       -2.89800000      -0.90880000       1.51430000
H       -0.70970000      -2.60900000       0.13650000
H       -2.44170000      -3.51960000      -1.22670000
H       -3.50060000      -3.03660000       0.09020000
H       -2.92690000      -1.58800000      -2.53650000
H       -4.50060000      -2.02440000      -1.83890000
H       -2.59070000       1.24810000      -0.46890000
H       -1.96840000       0.43100000      -1.91520000
