21
Properties=species:S:1:pos:R:3 gdb_83351=T pbc="F F F"
C       -0.11950000       1.53390000       0.00670000
C        0.02720000       0.01610000      -0.01620000
C        1.09980000      -0.59500000      -0.96870000
C        2.38620000      -0.04340000      -0.28070000
O        2.06820000      -0.07100000       1.11160000
C        0.71110000      -0.62630000       1.21940000
C        0.19110000      -0.34690000       2.60800000
C        0.80970000      -2.07690000       0.76370000
C        1.03610000      -2.05270000      -0.55400000
H        0.78930000       2.02700000       0.35990000
H       -0.35510000       1.91820000      -0.99170000
H       -0.93770000       1.83180000       0.67070000
H       -0.94060000      -0.45530000      -0.20640000
H        1.01960000      -0.37240000      -2.03300000
H        3.26510000      -0.66590000      -0.48550000
H        2.60530000       0.98650000      -0.58910000
H        0.16810000       0.72750000       2.80780000
H       -0.82010000      -0.74860000       2.72480000
H        0.83560000      -0.81550000       3.35790000
H        0.80470000      -2.93270000       1.42750000
H        1.25560000      -2.89040000      -1.20440000
