17
Properties=species:S:1:pos:R:3 gdb_98368=T pbc="F F F"
C        0.02690000       1.33770000      -0.07660000
O       -0.05260000      -0.09860000      -0.08550000
C       -1.27370000      -0.61310000       0.05830000
O       -2.28660000       0.03300000       0.19670000
C       -1.27980000      -2.13800000       0.02280000
O       -2.56620000      -2.60210000       0.34340000
C       -0.83730000      -2.64900000      -1.36790000
C       -0.83780000      -4.16410000      -1.43150000
O        0.08110000      -4.81850000      -1.85350000
H        1.08280000       1.57400000      -0.20120000
H       -0.56150000       1.75660000      -0.89610000
H       -0.34780000       1.73250000       0.87030000
H       -0.56050000      -2.49230000       0.77510000
H       -3.12980000      -1.81360000       0.38000000
H       -1.56370000      -2.28210000      -2.10630000
H        0.15650000      -2.28000000      -1.63070000
H       -1.76810000      -4.63960000      -1.05750000
