19
Properties=species:S:1:pos:R:3 gdb_113031=T pbc="F F F"
C       -0.74210000       0.87840000       0.30920000
O        0.08210000      -0.23890000       0.07420000
C        0.86440000      -0.14530000      -1.11570000
C        1.80180000      -1.36480000      -1.16800000
C        1.08860000      -2.40340000      -2.08500000
C        0.13930000      -1.52440000      -2.88670000
C        0.03380000      -0.30090000      -2.37650000
C        1.99950000      -3.19470000      -2.90420000
C        2.75190000      -3.84160000      -3.58300000
H       -0.16170000       1.81510000       0.32940000
H       -1.53630000       0.98290000      -0.44470000
H       -1.20960000       0.73490000       1.28670000
H        1.42150000       0.80480000      -1.09180000
H        2.75080000      -1.08090000      -1.62840000
H        2.00300000      -1.74680000      -0.16600000
H        0.49310000      -3.09610000      -1.47250000
H       -0.38410000      -1.90400000      -3.75660000
H       -0.60350000       0.48360000      -2.76760000
H        3.41540000      -4.41570000      -4.18080000
