16
Properties=species:S:1:pos:R:3 gdb_83409=T pbc="F F F"
N        0.12050000       1.21240000       0.53490000
C        0.03700000       0.02810000      -0.14990000
O        0.97320000      -0.43360000      -0.77890000
C       -1.26320000      -0.67720000      -0.05590000
C       -2.42130000      -0.52580000       0.92410000
O       -2.64940000      -1.96670000       0.94150000
C       -1.50290000      -2.18500000       0.10850000
C       -1.74360000      -1.57290000      -1.21440000
O       -3.01940000      -1.47100000      -1.74440000
H        0.94550000       1.76880000       0.37290000
H       -0.70570000       1.69180000       0.85080000
H       -2.12480000      -0.18330000       1.92120000
H       -3.30220000       0.02610000       0.57740000
H       -0.82710000      -2.99350000       0.36220000
H       -0.96620000      -1.71480000      -1.95790000
H       -3.61800000      -1.85280000      -1.08760000
