19
Properties=species:S:1:pos:R:3 gdb_119452=T pbc="F F F"
O       -0.15270000       1.48770000      -0.05150000
C       -0.01800000       0.08010000      -0.15510000
C       -1.37590000      -0.53610000       0.17800000
C       -1.36110000      -2.03700000       0.11710000
C       -1.55770000      -2.82960000      -1.12670000
C       -2.58230000      -2.99880000      -0.00660000
C       -1.99190000      -3.83950000       1.08020000
O       -2.41380000      -4.73260000       1.75900000
C       -0.71800000      -2.95610000       1.17770000
H        0.69970000       1.88870000      -0.24440000
H        0.28570000      -0.22330000      -1.16980000
H        0.74490000      -0.30280000       0.54200000
H       -1.67190000      -0.19890000       1.17870000
H       -2.11790000      -0.13790000      -0.52370000
H       -1.94710000      -2.29010000      -1.98500000
H       -0.89090000      -3.64860000      -1.38310000
H       -3.63220000      -2.78910000      -0.17230000
H        0.24500000      -3.41190000       0.92890000
H       -0.65690000      -2.50770000       2.17440000
