20
Properties=species:S:1:pos:R:3 gdb_67242=T pbc="F F F"
C       -0.13530000       1.51290000      -0.01590000
C        0.07560000       0.03890000       0.02080000
C        0.37310000      -1.00410000      -0.98970000
C        1.41700000      -1.67490000      -0.09900000
C        0.68760000      -0.97520000       1.08190000
C       -0.68360000      -1.62690000       1.02800000
C       -1.17630000      -2.96870000       1.45360000
C       -1.73950000      -1.69530000       2.07560000
N       -0.96820000      -0.98960000      -0.27890000
H        0.81870000       2.05160000      -0.02530000
H       -0.69350000       1.78730000      -0.91640000
H       -0.70810000       1.85410000       0.85360000
H        0.33270000      -0.94500000      -2.07000000
H        1.47340000      -2.76800000      -0.07460000
H        2.40850000      -1.25150000      -0.28090000
H        1.20000000      -0.74670000       2.01510000
H       -1.81330000      -3.51160000       0.76360000
H       -0.52840000      -3.59370000       2.06050000
H       -1.47070000      -1.46510000       3.10160000
H       -2.74400000      -1.40070000       1.79120000
