18
Properties=species:S:1:pos:R:3 gdb_53254=T pbc="F F F"
C        0.10660000       1.49170000       0.02350000
C        0.04030000       0.03810000       0.02950000
C       -0.01340000      -1.16540000       0.04530000
C       -0.05900000      -2.60000000       0.02400000
N       -0.57030000      -3.30460000       1.22060000
C       -1.36380000      -3.37130000      -0.02550000
C       -2.69320000      -2.64530000       0.01030000
C       -1.34280000      -4.60690000      -0.76790000
C       -1.33980000      -5.64780000      -1.37140000
H        1.10060000       1.84150000      -0.27620000
H       -0.62100000       1.92210000      -0.67350000
H       -0.10310000       1.90070000       1.01800000
H        0.76380000      -3.07440000      -0.50600000
H       -0.05210000      -4.17190000       1.34320000
H       -2.59400000      -1.71750000       0.57570000
H       -3.02930000      -2.41020000      -1.00370000
H       -3.45150000      -3.27190000       0.48870000
H       -1.33560000      -6.56370000      -1.90880000
