22
Properties=species:S:1:pos:R:3 gdb_114734=T pbc="F F F"
C       -0.78200000       1.27320000      -0.08590000
C       -0.02330000      -0.05900000      -0.08280000
C        1.03890000      -0.17100000      -1.17050000
C        2.34210000       0.51760000      -0.98690000
N        2.21300000      -0.91720000      -0.69220000
C        1.98320000      -1.21500000       0.73640000
C        0.72070000      -0.45150000       1.23300000
C        1.04130000       0.68850000       2.20190000
O        1.64610000       0.09440000       3.34410000
H       -0.11620000       2.12370000       0.09060000
H       -1.26430000       1.43230000      -1.05610000
H       -1.56760000       1.29210000       0.67650000
H       -0.75570000      -0.85080000      -0.28570000
H        0.69720000      -0.39870000      -2.17770000
H        2.95750000       0.74570000      -1.85310000
H        2.46000000       1.21670000      -0.16410000
H        1.82940000      -2.29560000       0.81640000
H        2.86830000      -0.96930000       1.33000000
H        0.09330000      -1.13810000       1.81060000
H        1.71490000       1.43210000       1.75020000
H        0.11610000       1.21530000       2.48030000
H        1.88230000       0.79520000       3.95860000
