19
Properties=species:S:1:pos:R:3 gdb_39686=T pbc="F F F"
C        0.12180000       1.40390000      -0.07980000
C        1.63550000       1.46240000       0.20770000
C        1.43300000       0.04190000       0.77470000
O        0.03940000       0.04420000       0.40230000
C        2.20750000      -1.07550000       0.08820000
O        3.59170000      -0.83750000       0.29160000
C        4.18180000      -2.06130000       0.71240000
C        3.01760000      -2.76520000       1.40370000
O        1.90510000      -2.35190000       0.62040000
H       -0.49720000       2.08430000       0.51820000
H       -0.17890000       1.48410000      -1.13100000
H        2.27560000       1.50490000      -0.67550000
H        1.96340000       2.21650000       0.92310000
H        1.56300000      -0.05360000       1.86090000
H        1.95890000      -1.09870000      -0.98440000
H        4.54360000      -2.64010000      -0.14960000
H        5.02250000      -1.83300000       1.37230000
H        3.07380000      -3.85610000       1.37580000
H        2.91680000      -2.43700000       2.44830000
