20
Properties=species:S:1:pos:R:3 gdb_104257=T pbc="F F F"
C        0.18260000       1.54450000       0.18660000
C        0.28260000       0.01920000       0.07180000
C        0.69550000      -0.46670000      -1.32010000
O       -0.22710000      -0.08870000      -2.31680000
C        2.20910000      -0.24950000      -1.65290000
C        2.48610000      -1.72720000      -1.27790000
C        0.95790000      -2.00910000      -1.40830000
C        0.32210000      -2.89540000      -0.45020000
N       -0.17140000      -3.58690000       0.33480000
H        1.12300000       2.03780000      -0.08150000
H       -0.60890000       1.95310000      -0.45290000
H       -0.06340000       1.83600000       1.21120000
H        1.00510000      -0.35470000       0.80650000
H       -0.68080000      -0.43730000       0.32400000
H       -0.39700000       0.85590000      -2.23850000
H        2.33400000      -0.06540000      -2.72240000
H        2.74390000       0.51790000      -1.08950000
H        3.13540000      -2.30500000      -1.93600000
H        2.83150000      -1.84510000      -0.24920000
H        0.70790000      -2.32970000      -2.42300000
