18
Properties=species:S:1:pos:R:3 gdb_11508=T pbc="F F F"
C        0.09870000       1.59520000      -0.05220000
C        0.08880000       0.05580000      -0.00730000
C        0.73790000      -0.60360000      -1.24590000
N       -0.01290000      -0.27550000      -2.44910000
C        0.53610000       0.76250000      -3.32120000
C        0.60450000      -0.67030000      -3.71180000
C        0.75420000      -0.43010000       1.20570000
N        1.29270000      -0.81200000       2.15460000
H        1.12180000       1.97770000      -0.11680000
H       -0.46260000       1.94060000      -0.92220000
H       -0.36290000       2.01120000       0.84650000
H       -0.95240000      -0.28640000       0.02910000
H        1.79940000      -0.30540000      -1.30770000
H        0.71360000      -1.69050000      -1.11500000
H       -0.19050000       1.42640000      -3.78040000
H        1.46670000       1.24110000      -3.02090000
H        1.58150000      -1.14930000      -3.67340000
H       -0.07170000      -1.07420000      -4.45940000
