20
Properties=species:S:1:pos:R:3 gdb_70187=T pbc="F F F"
C       -0.01420000       1.51850000       0.01920000
C       -0.04500000       0.00500000       0.02360000
C       -0.88410000      -0.72740000       1.04170000
C        0.62270000      -0.74820000       1.15140000
C        1.44130000      -1.97520000       0.76310000
C        2.24420000      -1.77350000      -0.52450000
O        3.36220000      -2.22030000      -0.69680000
N        1.57970000      -1.04610000      -1.47510000
C        0.17970000      -0.66040000      -1.33490000
H        0.91810000       1.88850000      -0.42320000
H       -0.84860000       1.93390000      -0.55860000
H       -0.08180000       1.91870000       1.03550000
H       -1.43980000      -0.13680000       1.76260000
H       -1.38540000      -1.64200000       0.73750000
H        1.05780000      -0.14070000       1.93910000
H        2.14920000      -2.26000000       1.54280000
H        0.78570000      -2.84150000       0.60240000
H        2.03210000      -0.98990000      -2.37470000
H       -0.48150000      -1.53120000      -1.45140000
H       -0.06480000       0.03050000      -2.14660000
