20
Properties=species:S:1:pos:R:3 gdb_126186=T pbc="F F F"
C        0.03990000       1.57930000       0.25730000
C       -0.00830000       0.05930000       0.01420000
C       -1.39900000      -0.48200000      -0.10770000
C       -2.20050000      -0.72330000      -1.21170000
C       -1.88810000      -0.53340000      -2.66280000
C       -3.42500000      -1.18760000      -0.65770000
N       -4.58760000      -1.49990000      -1.36880000
N       -3.39550000      -1.23850000       0.66850000
N       -2.15130000      -0.78950000       0.97940000
H        1.07380000       1.92740000       0.34610000
H       -0.43490000       2.12020000      -0.56640000
H       -0.48950000       1.84750000       1.17680000
H        0.54520000      -0.18200000      -0.89910000
H        0.51490000      -0.45710000       0.82920000
H       -1.92140000      -1.47830000      -3.22200000
H       -2.60330000       0.14500000      -3.14360000
H       -0.88870000      -0.11290000      -2.80720000
H       -4.40670000      -2.04480000      -2.20230000
H       -5.25750000      -1.97930000      -0.77970000
H       -1.87760000      -0.75110000       1.94530000
