20
Properties=species:S:1:pos:R:3 gdb_113111=T pbc="F F F"
O        0.42870000       0.80770000      -0.93610000
C        0.06560000      -0.38900000      -0.26630000
C       -1.33050000      -0.19750000       0.30220000
C       -2.45130000      -0.12910000      -0.77640000
C       -2.77470000      -1.60900000      -0.48760000
C       -1.97680000      -1.50950000       0.83760000
O       -4.15960000      -1.89930000      -0.38330000
C       -4.57090000      -3.14110000      -0.69950000
N       -5.77110000      -3.48170000      -0.50780000
H        1.30940000       0.69480000      -1.30520000
H        0.07930000      -1.25000000      -0.95660000
H        0.76580000      -0.62050000       0.55310000
H       -1.31000000       0.64020000       1.00270000
H       -3.28390000       0.50460000      -0.46310000
H       -2.15410000       0.14220000      -1.79100000
H       -2.30800000      -2.29280000      -1.20650000
H       -1.31350000      -2.34070000       1.09470000
H       -2.65350000      -1.32040000       1.67380000
H       -3.77600000      -3.76790000      -1.12950000
H       -5.91280000      -4.43870000      -0.82410000
