25
Properties=species:S:1:pos:R:3 gdb_103177=T pbc="F F F"
C       -0.20190000       1.00210000      -1.42570000
C       -0.49920000      -0.50030000      -1.32370000
C       -1.90030000      -0.85000000      -0.80130000
O       -2.16850000      -0.18790000       0.42590000
C       -3.06390000      -0.81530000      -1.86360000
C       -3.03260000       0.05800000      -3.11010000
C       -2.90130000      -2.34930000      -2.02100000
C       -2.16440000      -2.38070000      -0.65780000
C       -1.02740000      -3.36590000      -0.43340000
H        0.80460000       1.16710000      -1.82190000
H       -0.90330000       1.52370000      -2.08330000
H       -0.23520000       1.48080000      -0.44090000
H       -0.34890000      -0.97050000      -2.30260000
H        0.23650000      -0.95290000      -0.64900000
H       -2.10130000       0.76160000       0.28100000
H       -3.97900000      -0.61280000      -1.29610000
H       -2.11230000      -0.08320000      -3.68690000
H       -3.87070000      -0.19540000      -3.76990000
H       -3.12120000       1.12360000      -2.87090000
H       -3.80930000      -2.94840000      -2.12370000
H       -2.22840000      -2.59900000      -2.84960000
H       -2.90150000      -2.48410000       0.14550000
H       -0.27870000      -3.31790000      -1.23100000
H       -0.51880000      -3.17950000       0.51890000
H       -1.41080000      -4.39190000      -0.40620000
