14
Properties=species:S:1:pos:R:3 gdb_125134=T pbc="F F F"
C        0.03450000       1.51490000       0.01630000
C       -0.03930000       0.02880000      -0.02770000
C       -0.21840000      -0.86260000      -1.06230000
O       -0.41790000      -0.52950000      -2.36900000
C        0.08290000      -1.36920000      -3.33220000
O       -0.11010000      -1.15940000      -4.48690000
N       -0.22050000      -2.13490000      -0.60080000
N       -0.04060000      -2.10260000       0.69220000
N        0.06160000      -0.80800000       1.03820000
H        0.99240000       1.86370000       0.41700000
H       -0.07230000       1.90830000      -0.99650000
H       -0.76390000       1.94480000       0.63100000
H        0.65120000      -2.20730000      -2.90320000
H        0.18930000      -0.57210000       2.01010000
