19
Properties=species:S:1:pos:R:3 gdb_14736=T pbc="F F F"
C       -0.02440000       1.05870000      -0.54950000
O       -0.38970000       0.10060000       0.43410000
C       -1.19780000      -0.89420000       0.00350000
N       -1.57110000      -1.78660000       0.80490000
C       -2.43820000      -2.86620000       0.36760000
C       -2.89760000      -2.90590000      -1.09560000
C       -3.79800000      -4.10220000      -1.37500000
O       -4.17110000      -4.05620000      -2.74440000
H        0.61920000       1.78340000      -0.04910000
H        0.53150000       0.59860000      -1.37610000
H       -0.90190000       1.57940000      -0.95310000
H       -1.46200000      -0.82170000      -1.05950000
H       -1.92250000      -3.80630000       0.60960000
H       -3.32090000      -2.85030000       1.02270000
H       -3.44970000      -1.99400000      -1.35380000
H       -2.03560000      -2.96070000      -1.77160000
H       -3.26120000      -5.03590000      -1.14000000
H       -4.68370000      -4.06340000      -0.71980000
H       -4.74020000      -4.80980000      -2.92620000
