21
Properties=species:S:1:pos:R:3 gdb_63174=T pbc="F F F"
C       -0.03880000       1.58230000       0.06310000
C        0.05390000       0.07200000       0.05810000
O       -1.15750000      -0.54670000      -0.31730000
C        1.29910000      -0.69620000      -0.35110000
C        2.64120000       0.00640000      -0.32260000
O        2.71270000       0.68130000       0.93320000
C        1.88430000       0.00320000       1.87380000
C        0.80630000      -0.73750000       1.09100000
C        0.18790000      -1.95060000       1.74450000
H        0.89290000       2.04800000       0.38550000
H       -0.27010000       1.95060000      -0.94490000
H       -0.84900000       1.90350000       0.72570000
H       -1.33680000      -0.30030000      -1.23140000
H        1.16490000      -1.55200000      -1.00370000
H        3.45260000      -0.73260000      -0.42210000
H        2.77750000       0.76510000      -1.10170000
H        2.46750000      -0.72860000       2.45630000
H        1.49760000       0.75720000       2.56890000
H       -0.31360000      -1.67950000       2.68130000
H       -0.55660000      -2.40720000       1.09190000
H        0.95390000      -2.69720000       1.98360000
