18
Properties=species:S:1:pos:R:3 gdb_79640=T pbc="F F F"
C       -0.36410000       1.46350000       0.34300000
N        0.02180000       0.11800000      -0.05890000
C        0.49350000      -0.34330000      -1.34280000
C        1.25840000       0.55650000      -2.30810000
O        1.51430000       1.89730000      -1.85590000
C        2.55410000       0.91860000      -1.71910000
C        2.63990000       0.34400000      -0.30150000
O        2.91660000       1.32270000       0.68300000
C        1.33840000      -0.46940000      -0.09750000
H       -1.40840000       1.61560000       0.05060000
H       -0.31750000       1.51090000       1.43550000
H        0.22480000       2.27660000      -0.08760000
H       -0.05190000      -1.17220000      -1.78960000
H        1.09820000       0.45380000      -3.37780000
H        3.45720000       1.12700000      -2.28750000
H        3.47660000      -0.36320000      -0.25880000
H        2.31440000       2.05830000       0.52440000
H        1.44240000      -1.39950000       0.45880000
