23
Properties=species:S:1:pos:R:3 gdb_120488=T pbc="F F F"
C        0.86170000       1.40300000       0.19750000
C        0.45820000      -0.05810000       0.09670000
O        0.75850000      -0.69570000       1.32790000
C        0.42740000      -2.07670000       1.36010000
C        1.55110000      -2.96000000       0.74480000
C        2.20540000      -3.01160000       2.15670000
O        3.19420000      -2.02560000       2.35970000
C        0.80400000      -2.65130000       2.75310000
C        0.70180000      -1.78370000       3.99550000
H        1.93740000       1.49700000       0.37340000
H        0.61750000       1.92920000      -0.73010000
H        0.33550000       1.89010000       1.02320000
H       -0.62030000      -0.15050000      -0.10970000
H        0.98920000      -0.55010000      -0.73290000
H       -0.60150000      -2.22280000       1.00300000
H        1.17700000      -3.93410000       0.41690000
H        2.15690000      -2.51840000      -0.05050000
H        2.65010000      -3.95850000       2.47270000
H        2.81260000      -1.18820000       2.06460000
H        0.24090000      -3.58170000       2.89010000
H        1.27450000      -0.86110000       3.88670000
H       -0.33910000      -1.51140000       4.19990000
H        1.08840000      -2.31900000       4.86880000
