14
Properties=species:S:1:pos:R:3 gdb_56085=T pbc="F F F"
N       -0.10900000       1.30280000      -0.09590000
C        0.06430000      -0.04560000      -0.00920000
O        1.12450000      -0.62010000       0.07210000
O       -1.14490000      -0.66860000      -0.05930000
C       -1.05860000      -2.10300000      -0.02670000
C       -2.40200000      -2.65060000      -0.00490000
C       -3.50370000      -3.14850000       0.01450000
C       -4.74590000      -3.70270000       0.03590000
C       -5.84770000      -4.19590000       0.05520000
H        0.68950000       1.87450000       0.11690000
H       -1.02740000       1.69100000       0.03330000
H       -0.50510000      -2.45740000      -0.90420000
H       -0.49000000      -2.41690000       0.85580000
H       -6.81720000      -4.62860000       0.07160000
