21
Properties=species:S:1:pos:R:3 gdb_59027=T pbc="F F F"
C        0.03820000       1.55340000       0.00800000
C       -0.02430000       0.02080000       0.03730000
O        0.68730000      -0.49460000       1.16630000
C       -1.43410000      -0.50380000      -0.00060000
C       -1.98610000      -1.26250000      -0.95340000
C       -3.42920000      -1.61410000      -0.66170000
C       -3.65780000      -1.03730000       0.73540000
C       -2.80720000      -1.54260000       1.86990000
C       -2.39790000      -0.28160000       1.12780000
H        1.08040000       1.88060000       0.05530000
H       -0.41700000       1.94810000      -0.90600000
H       -0.49240000       1.98610000       0.86380000
H        0.51700000      -0.36890000      -0.83170000
H        0.16480000      -0.29860000       1.95180000
H       -1.46390000      -1.62240000      -1.83370000
H       -4.10910000      -1.16210000      -1.39690000
H       -3.60850000      -2.69650000      -0.70380000
H       -4.63430000      -0.63770000       0.98160000
H       -3.21100000      -1.43040000       2.87110000
H       -2.19890000      -2.42910000       1.72040000
H       -2.43650000       0.67120000       1.64600000
