13
Properties=species:S:1:pos:R:3 gdb_4724=T pbc="F F F"
C        0.01340000       1.50410000       0.00700000
C        0.00000000       0.01340000      -0.02620000
C       -0.07820000      -0.83190000      -1.08730000
O       -0.05660000      -2.11440000      -0.62800000
C        0.03590000      -1.98420000       0.72470000
N        0.07270000      -0.74760000       1.13100000
C        0.07960000      -3.16270000       1.49860000
C        0.11660000      -4.16990000       2.15460000
H        0.93070000       1.87410000       0.47600000
H       -0.05100000       1.92050000      -1.00140000
H       -0.82780000       1.88730000       0.59360000
H       -0.14950000      -0.70540000      -2.15420000
H        0.14970000      -5.05600000       2.73970000
