19
Properties=species:S:1:pos:R:3 gdb_120078=T pbc="F F F"
C       -0.12640000       1.40710000       0.00530000
O       -0.12880000       0.00300000      -0.08290000
C        0.79030000      -0.49220000      -1.03400000
C        0.71550000      -2.00500000      -1.02190000
C       -0.51040000      -2.68870000      -1.66920000
C        0.08040000      -2.56430000      -3.11240000
O       -0.08660000      -3.97580000      -3.43640000
C        0.31880000      -3.95800000      -2.03630000
C        1.33500000      -2.78510000      -2.20480000
H        0.86040000       1.79720000       0.30220000
H       -0.40540000       1.87880000      -0.95080000
H       -0.86010000       1.68960000       0.76420000
H        0.55510000      -0.09600000      -2.03780000
H        1.81370000      -0.15640000      -0.78940000
H        0.97620000      -2.38590000      -0.02850000
H       -1.56140000      -2.65260000      -1.38640000
H       -0.10660000      -1.82970000      -3.89430000
H        0.42610000      -4.90290000      -1.50460000
H        2.37250000      -2.86320000      -2.53070000
