21
Properties=species:S:1:pos:R:3 gdb_93787=T pbc="F F F"
C       -0.16590000       1.51730000       0.10740000
C       -0.09960000       0.01360000      -0.10990000
C        0.76780000      -0.40580000      -1.28870000
C        0.87260000      -1.92920000      -1.32510000
C        1.49310000      -2.45620000      -0.02150000
C        3.03470000      -2.39810000      -0.03020000
C        0.99790000      -1.74550000       1.24170000
O        1.20660000      -2.19260000       2.33870000
O        0.36830000      -0.55080000       1.13940000
H        0.83600000       1.92640000       0.26940000
H       -0.60610000       2.00670000      -0.76670000
H       -0.77740000       1.75010000       0.98260000
H       -1.11660000      -0.37520000      -0.26510000
H        0.32040000      -0.01890000      -2.21040000
H        1.75980000       0.05310000      -1.19540000
H       -0.13200000      -2.35060000      -1.45640000
H        1.46680000      -2.26590000      -2.18110000
H        1.21100000      -3.50380000       0.12390000
H        3.40170000      -1.37800000      -0.18370000
H        3.43060000      -2.76160000       0.92010000
H        3.42820000      -3.02270000      -0.83800000
