19
Properties=species:S:1:pos:R:3 gdb_46062=T pbc="F F F"
O        0.06610000       0.00290000       0.13250000
C        0.01250000       1.20380000       0.12270000
C       -1.26020000       2.05580000      -0.02760000
N       -0.83640000       3.45490000      -0.12270000
C        0.49230000       3.53810000       0.53260000
C        1.18060000       2.18270000       0.26890000
C        1.26500000       4.74130000       0.05690000
C        1.04710000       6.06870000       0.67930000
N        2.31240000       5.34400000       0.89470000
H       -1.85420000       1.73610000      -0.88750000
H       -1.87990000       1.89690000       0.86690000
H       -0.72870000       3.70700000      -1.10090000
H        0.31730000       3.64650000       1.61400000
H        1.88340000       1.85110000       1.03630000
H        1.72380000       2.20870000      -0.68560000
H        1.53450000       4.70470000      -0.99960000
H        1.13390000       6.97280000       0.08400000
H        0.33070000       6.12840000       1.49440000
H        2.30930000       4.91270000       1.81660000
