15
Properties=species:S:1:pos:R:3 gdb_52214=T pbc="F F F"
O        0.28590000       0.42690000      -0.99300000
C        0.36600000       1.56410000      -0.64280000
O        0.80060000       1.90920000       0.59190000
C        0.91000000       3.30850000       0.87530000
C        2.27640000       3.81450000       0.49410000
O        2.48460000       4.06670000      -0.89330000
C        2.48950000       5.19340000       0.00080000
C        1.42160000       6.15000000      -0.12180000
C        0.55540000       6.97790000      -0.21610000
H        0.09420000       2.43800000      -1.26270000
H        0.13750000       3.87690000       0.34780000
H        0.74780000       3.41090000       1.95150000
H        3.11100000       3.32100000       0.99290000
H        3.47710000       5.62670000       0.15430000
H       -0.21190000       7.70750000      -0.30550000
