19
Properties=species:S:1:pos:R:3 gdb_126777=T pbc="F F F"
C       -0.14250000       1.58290000      -0.15810000
C        0.06960000       0.06960000      -0.07260000
N        0.80460000      -0.46170000      -1.20420000
N        0.16090000      -0.58460000      -2.40130000
C        1.09710000      -1.01610000      -3.23130000
O        0.82910000      -1.27120000      -4.53020000
C        2.34790000      -1.17310000      -2.60330000
C        2.11860000      -0.79920000      -1.29050000
C        3.06000000      -0.75180000      -0.13050000
H        0.81310000       2.11610000      -0.15180000
H       -0.67000000       1.83500000      -1.08120000
H       -0.73750000       1.93140000       0.69180000
H        0.61760000      -0.19540000       0.83550000
H       -0.89510000      -0.44550000      -0.03820000
H       -0.10670000      -1.07660000      -4.66510000
H        3.27220000      -1.51550000      -3.03740000
H        3.15410000       0.25720000       0.28680000
H        2.74560000      -1.41590000       0.68300000
H        4.05320000      -1.07110000      -0.45260000
