18
Properties=species:S:1:pos:R:3 gdb_31972=T pbc="F F F"
C        0.37340000       1.21320000      -0.32720000
N       -0.30140000       0.07670000       0.30770000
C        0.47990000      -0.73710000       1.11270000
C        0.87480000      -2.03060000       1.01840000
C        1.70340000      -2.32660000       2.15260000
C        1.75330000      -1.16970000       2.86710000
O        2.38250000      -0.90330000       4.01860000
C        2.30480000       0.43200000       4.50880000
O        1.03640000      -0.18720000       2.28280000
H        1.19210000       0.83700000      -0.94720000
H       -0.33740000       1.73220000      -0.97720000
H        0.78940000       1.93990000       0.38620000
H       -1.15390000       0.37470000       0.76970000
H        0.59850000      -2.70190000       0.22040000
H        2.18690000      -3.25480000       2.40570000
H        2.73480000       1.14310000       3.79550000
H        1.26900000       0.72040000       4.71580000
H        2.88260000       0.44110000       5.43350000
