19
Properties=species:S:1:pos:R:3 gdb_78332=T pbc="F F F"
C       -0.10350000       1.40870000      -0.01130000
C        0.05320000      -0.09320000       0.09750000
C        1.44370000      -0.65860000      -0.20580000
C        0.83790000      -0.66800000       1.22650000
C        0.75730000      -2.18710000       1.17990000
C        1.12080000      -3.19030000       2.24120000
C       -0.28460000      -3.13760000       1.70660000
C        1.40590000      -2.16310000      -0.19450000
O        1.84810000      -3.02210000      -0.90760000
H        0.78380000       1.92970000       0.36290000
H       -0.25890000       1.71510000      -1.05070000
H       -0.96430000       1.75070000       0.57280000
H       -0.80670000      -0.66110000      -0.25260000
H        2.21420000      -0.02980000      -0.63440000
H        1.18370000      -0.08340000       2.06980000
H        1.75800000      -4.01290000       1.93350000
H        1.30350000      -2.81860000       3.24390000
H       -1.06050000      -2.72800000       2.34510000
H       -0.60970000      -3.93320000       1.04430000
