18
Properties=species:S:1:pos:R:3 gdb_48851=T pbc="F F F"
O       -0.45490000       0.59570000       0.70450000
C        0.23270000       0.94980000      -0.22050000
C        1.39110000       1.88570000      -0.10820000
C        1.91320000       2.18550000       1.28860000
C        2.28490000       3.65950000       1.46100000
O        2.98100000       4.15810000       0.32340000
C        2.12030000       4.27020000      -0.79010000
C        1.50970000       2.93740000      -1.18240000
N        2.33790000       1.74640000      -1.24850000
H        0.04890000       0.60500000      -1.26160000
H        1.14100000       1.90000000       2.00940000
H        2.78550000       1.55160000       1.48820000
H        1.37970000       4.26450000       1.62830000
H        2.94930000       3.80160000       2.31690000
H        1.31180000       4.99250000      -0.58720000
H        2.72630000       4.66370000      -1.61360000
H        0.74100000       2.99960000      -1.95160000
H        3.27170000       1.97180000      -0.90640000
