13
Properties=species:S:1:pos:R:3 gdb_25214=T pbc="F F F"
O       -0.07120000      -0.10820000      -0.03840000
C       -0.01410000       1.09680000      -0.01730000
N       -1.19120000       1.82610000       0.15730000
C       -1.48160000       3.16080000       0.22810000
C       -0.65050000       4.22850000       0.14320000
N        0.70310000       4.27960000      -0.03550000
C        1.51590000       3.29170000      -0.16780000
C        1.33760000       1.81900000      -0.18050000
O        2.30990000       1.11100000      -0.32800000
H       -1.97640000       1.19250000       0.24680000
H       -2.53920000       3.35200000       0.37350000
H       -1.12300000       5.20170000       0.22960000
H        2.57020000       3.54040000      -0.30190000
