15
Properties=species:S:1:pos:R:3 gdb_32489=T pbc="F F F"
C       -0.02540000       1.40340000       0.03480000
O       -0.00650000      -0.01530000       0.02040000
C        0.60060000      -0.57340000      -1.04510000
C        1.20870000       0.01270000      -2.12890000
O        1.68960000      -0.93950000      -2.96570000
C        1.38920000      -2.14660000      -2.41800000
C        1.78960000      -3.36220000      -3.10970000
O        2.38470000      -3.41020000      -4.16220000
C        0.71900000      -1.97820000      -1.23360000
H        0.99390000       1.81140000       0.04320000
H       -0.56340000       1.79950000      -0.83660000
H       -0.54340000       1.69950000       0.94750000
H        1.36970000       1.03360000      -2.42820000
H        1.48660000      -4.28090000      -2.56090000
H        0.35400000      -2.75190000      -0.57660000
