23
Properties=species:S:1:pos:R:3 gdb_114700=T pbc="F F F"
C        0.26070000       0.63680000       0.73950000
O        0.10390000      -0.49100000      -0.08760000
C        0.60010000      -0.32020000      -1.41240000
C        2.14290000      -0.46640000      -1.50660000
C        2.39320000      -1.93370000      -1.81470000
C        1.67300000      -2.95810000      -0.96580000
C        1.10310000      -2.55820000      -2.30780000
C        1.05920000      -3.56130000      -3.43540000
C        0.03870000      -1.46430000      -2.28120000
H        1.31590000       0.88680000       0.92510000
H       -0.22890000       1.52430000       0.30740000
H       -0.21300000       0.40380000       1.69660000
H        0.27080000       0.66330000      -1.77920000
H        2.52020000       0.15610000      -2.32730000
H        2.63430000      -0.12030000      -0.59110000
H        3.34520000      -2.21150000      -2.25600000
H        2.12310000      -3.94400000      -0.90320000
H        1.17590000      -2.62620000      -0.06190000
H        1.92070000      -4.23600000      -3.39940000
H        0.15510000      -4.18030000      -3.38600000
H        1.06460000      -3.06420000      -4.41340000
H       -0.92720000      -1.79440000      -1.88620000
H       -0.12820000      -1.10090000      -3.30290000
