19
Properties=species:S:1:pos:R:3 gdb_79876=T pbc="F F F"
C       -0.02840000       1.55140000       0.01680000
C       -0.00810000       0.04910000      -0.00180000
C       -0.87790000      -0.78610000       0.90160000
O       -1.79110000      -1.78100000       0.55160000
C        0.60020000      -0.97310000       1.04430000
C        1.19060000      -1.76180000      -0.13180000
O        0.36020000      -2.82780000      -0.71330000
C       -0.05880000      -1.94240000      -1.80340000
C        0.66220000      -0.74850000      -1.15150000
H        0.95730000       1.97430000      -0.21110000
H       -0.73570000       1.94130000      -0.72600000
H       -0.33680000       1.93110000       0.99620000
H       -1.29390000      -0.17360000       1.70080000
H       -1.26540000      -2.53660000       0.24950000
H        1.12500000      -0.79730000       1.97770000
H        2.23720000      -2.06040000      -0.05000000
H        0.39170000      -2.26870000      -2.74740000
H       -1.14590000      -1.89640000      -1.89920000
H        1.33620000      -0.15430000      -1.76750000
