17
Properties=species:S:1:pos:R:3 gdb_99248=T pbc="F F F"
N       -0.08460000       1.27070000      -0.01990000
C        0.00770000      -0.08220000      -0.02100000
O        1.06720000      -0.68070000      -0.06780000
C       -1.33280000      -0.81780000       0.04180000
N       -1.06800000      -2.23320000       0.03290000
C       -2.05270000      -3.15190000       0.07970000
O       -3.24140000      -2.85950000       0.13310000
C       -1.62900000      -4.62390000       0.06350000
O       -2.76140000      -5.44000000       0.11720000
H        0.76320000       1.81190000      -0.06040000
H       -0.96670000       1.75100000       0.01830000
H       -1.88010000      -0.52120000       0.94620000
H       -1.96030000      -0.52520000      -0.81020000
H       -0.08760000      -2.48080000      -0.01120000
H       -1.04150000      -4.81570000      -0.84880000
H       -0.96050000      -4.81190000       0.91900000
H       -3.50550000      -4.81400000       0.14960000
