19
Properties=species:S:1:pos:R:3 gdb_11507=T pbc="F F F"
C       -0.13340000       1.58050000      -0.04750000
C       -0.03160000       0.04280000      -0.03670000
C       -1.41040000      -0.65220000       0.02650000
N       -2.11350000      -0.32400000       1.26090000
C       -3.15860000       0.69440000       1.18570000
C       -3.50940000      -0.74350000       1.32840000
C        0.71100000      -0.44290000      -1.19850000
C        1.29990000      -0.83860000      -2.16930000
H        0.86190000       2.02950000      -0.09640000
H       -0.70130000       1.92620000      -0.91740000
H       -0.62890000       1.93420000       0.85940000
H        0.50940000      -0.25470000       0.87120000
H       -1.99330000      -0.39150000      -0.87520000
H       -1.25270000      -1.73560000       0.00660000
H       -3.22680000       1.36770000       2.03550000
H       -3.34960000       1.15890000       0.21960000
H       -3.93510000      -1.23870000       0.45690000
H       -3.83710000      -1.14290000       2.28400000
H        1.83270000      -1.19050000      -3.01760000
