19
Properties=species:S:1:pos:R:3 gdb_98470=T pbc="F F F"
C       -0.88480000       0.51760000      -0.49110000
C       -0.36790000      -0.72680000       0.24080000
C        0.81000000      -0.42370000       1.14280000
C        1.95990000      -1.35080000       1.22000000
O        2.06200000      -0.13050000       0.49510000
C        0.51180000       0.42290000       2.36490000
O       -0.56300000       0.36360000       2.90960000
C        1.62300000       1.35930000       2.82400000
O        1.23910000       1.96810000       4.02880000
H       -0.09300000       0.96920000      -1.09660000
H       -1.71310000       0.25720000      -1.15590000
H       -1.24940000       1.26750000       0.21710000
H       -1.16080000      -1.15390000       0.86250000
H       -0.06430000      -1.48940000      -0.48360000
H        2.55970000      -1.41420000       2.12680000
H        1.93180000      -2.25740000       0.61730000
H        2.56340000       0.79220000       2.91040000
H        1.78490000       2.08080000       2.00520000
H        1.92430000       2.59700000       4.27260000
