18
Properties=species:S:1:pos:R:3 gdb_128511=T pbc="F F F"
C       -0.65530000       0.70930000       0.14250000
O        0.69310000       0.70620000      -0.33660000
C        1.02760000      -0.28350000      -1.18270000
C        0.67660000      -1.61890000      -1.32710000
N       -0.26710000      -2.33700000      -0.53530000
C        1.48020000      -2.07210000      -2.41220000
C        1.50410000      -3.44360000      -3.00710000
N        2.26210000      -1.10950000      -2.88770000
N        1.96780000      -0.02780000      -2.12240000
H       -1.35730000       0.83970000      -0.68940000
H       -0.89240000      -0.22130000       0.66160000
H       -0.72680000       1.56120000       0.82040000
H        0.19620000      -2.93260000       0.14520000
H       -0.83730000      -2.94570000      -1.11350000
H        0.54080000      -3.70880000      -3.45990000
H        2.26930000      -3.49440000      -3.78440000
H        1.72510000      -4.20710000      -2.25210000
H        2.44030000       0.84660000      -2.27250000
