23
Properties=species:S:1:pos:R:3 gdb_58778=T pbc="F F F"
C        0.41580000       1.55440000      -0.05510000
C       -0.03490000       0.08230000      -0.01060000
C        0.39550000      -0.66480000      -1.27930000
C        0.46890000      -0.55780000       1.25670000
C        0.02050000      -0.21970000       2.69270000
C        0.48330000      -1.64930000       3.12950000
C        0.91080000      -1.91240000       1.67470000
C        1.04940000      -3.24330000       1.00730000
O        1.87050000      -0.88470000       1.35740000
H        1.50780000       1.61880000      -0.10100000
H        0.00660000       2.05800000      -0.93640000
H        0.08320000       2.10350000       0.83140000
H       -1.13260000       0.06760000       0.04680000
H        1.48490000      -0.75160000      -1.32230000
H       -0.02990000      -1.67160000      -1.31840000
H        0.05890000      -0.12590000      -2.17050000
H        0.54120000       0.62440000       3.15120000
H       -1.05940000      -0.07720000       2.78710000
H        1.29370000      -1.70280000       3.86100000
H       -0.34650000      -2.28070000       3.45830000
H        0.12170000      -3.81920000       1.09150000
H        1.30210000      -3.13420000      -0.04870000
H        1.84560000      -3.82400000       1.48840000
