18
Properties=species:S:1:pos:R:3 gdb_119556=T pbc="F F F"
O        0.04960000       1.48800000      -0.24570000
C        0.02480000       0.07030000      -0.22860000
C       -1.36720000      -0.48110000       0.11600000
C       -1.39950000      -1.98190000       0.10740000
C       -1.60240000      -2.85050000      -1.14720000
C       -2.49790000      -3.02130000       0.02450000
O       -1.83540000      -3.85950000       1.01140000
C       -0.85560000      -2.88070000       1.17460000
N        0.08180000      -2.79460000       2.00220000
H       -0.02590000       1.79430000       0.66350000
H        0.30760000      -0.24800000      -1.23770000
H        0.76670000      -0.34490000       0.46740000
H       -1.66000000      -0.11690000       1.10960000
H       -2.09410000      -0.08170000      -0.60000000
H       -2.01680000      -2.30300000      -1.98920000
H       -0.90200000      -3.63900000      -1.40420000
H       -3.57550000      -2.95040000       0.07550000
H        0.10930000      -3.60510000       2.62300000
