13
Properties=species:S:1:pos:R:3 gdb_131312=T pbc="F F F"
O        0.07730000       1.24950000      -0.10840000
C        0.06520000      -0.08780000      -0.05200000
N        0.01330000      -0.80450000      -1.17310000
N        0.02080000      -2.06860000      -0.64130000
C       -0.00990000      -3.38390000      -1.06480000
C        0.02690000      -4.13970000       0.06890000
N        0.07950000      -3.28360000       1.17270000
C        0.07480000      -2.00390000       0.71030000
N        0.10520000      -0.74990000       1.14410000
H        0.11660000       1.55900000       0.80440000
H       -0.05380000      -3.66710000      -2.10080000
H        0.02020000      -5.20850000       0.18850000
H        0.11480000      -3.55770000       2.13760000
