21
Properties=species:S:1:pos:R:3 gdb_93239=T pbc="F F F"
C        0.03420000       1.57490000       0.02150000
C        0.00130000       0.04650000      -0.01420000
C        0.71270000      -0.51710000      -1.24420000
N        0.69240000      -1.96500000      -1.17860000
C        0.87720000      -2.70220000      -0.02540000
O        1.09380000      -3.90420000      -0.07430000
N        0.74800000      -2.00590000       1.16120000
C        1.02570000      -2.70270000       2.40160000
C        0.64580000      -0.55720000       1.23510000
H        1.06390000       1.94940000       0.04760000
H       -0.45360000       1.99920000      -0.86160000
H       -0.48330000       1.96030000       0.90560000
H       -1.04090000      -0.29380000      -0.05310000
H        0.20250000      -0.19750000      -2.15960000
H        1.73960000      -0.11540000      -1.29030000
H        0.92450000      -2.49430000      -2.00360000
H        1.08630000      -3.76820000       2.18650000
H        1.97560000      -2.37220000       2.84670000
H        0.22680000      -2.51830000       3.13040000
H        1.64050000      -0.10370000       1.39370000
H        0.04700000      -0.30170000       2.11880000
