13
Properties=species:S:1:pos:R:3 gdb_46019=T pbc="F F F"
O       -0.05710000       0.14270000      -0.69240000
C       -0.02550000       1.19250000      -0.10380000
C       -1.31570000       1.88710000       0.31370000
O       -1.16270000       2.89540000       1.32140000
C        0.01820000       3.55660000       1.34230000
N        1.13700000       3.22500000       0.85550000
C        1.26630000       1.92790000       0.21700000
C       -0.10410000       4.80460000       2.06660000
N       -0.20270000       5.79850000       2.64660000
H       -1.75580000       2.34740000      -0.58170000
H       -2.02260000       1.15210000       0.70230000
H        1.87110000       1.27810000       0.86440000
H        1.84590000       2.03280000      -0.70780000
