15
Properties=species:S:1:pos:R:3 gdb_25912=T pbc="F F F"
C       -0.05690000       1.52330000       0.03330000
C        0.07550000       0.01570000       0.02290000
O        1.13120000      -0.56610000       0.03780000
N       -1.13380000      -0.71110000      -0.00620000
C       -2.42550000      -0.23480000      -0.02660000
N       -3.30360000      -1.20170000      -0.05150000
C       -2.56090000      -2.36430000      -0.04740000
O       -3.16550000      -3.56600000      -0.06920000
C       -1.22280000      -2.10750000      -0.01990000
H        0.94600000       1.94740000       0.05630000
H       -0.58120000       1.87880000      -0.85880000
H       -0.61550000       1.86360000       0.91030000
H       -2.65510000       0.81850000      -0.02190000
H       -4.11520000      -3.39510000      -0.08570000
H       -0.34470000      -2.72460000      -0.00860000
