19
Properties=species:S:1:pos:R:3 gdb_58719=T pbc="F F F"
C       -0.54640000       1.51970000      -0.06750000
C       -0.07680000       0.07630000       0.13180000
O       -1.14520000      -0.75730000       0.54370000
C        0.56290000      -0.51360000      -1.14240000
C        0.89860000      -2.02430000      -1.10400000
C       -0.13020000      -2.13780000      -2.24350000
O       -0.45340000      -0.72440000      -2.15980000
C        1.67880000       0.36930000      -1.66860000
O        2.76510000       0.44590000      -1.15380000
H        0.29470000       2.19580000      -0.25240000
H       -1.23370000       1.58530000      -0.91800000
H       -1.07120000       1.85930000       0.82860000
H        0.67400000       0.02910000       0.92840000
H       -1.76000000      -0.78140000      -0.20140000
H        1.93030000      -2.27840000      -1.34650000
H        0.59780000      -2.50390000      -0.17330000
H        0.27900000      -2.39330000      -3.22750000
H       -1.00610000      -2.76310000      -2.04360000
H        1.40630000       0.94370000      -2.58250000
