23
Properties=species:S:1:pos:R:3 gdb_97575=T pbc="F F F"
C        0.05250000       1.52400000       0.14270000
C        0.02010000      -0.00630000       0.02720000
C       -1.41790000      -0.51880000       0.18270000
C        0.65190000      -0.50360000      -1.30640000
C        2.09330000       0.00470000      -1.52700000
C        0.63870000      -1.96550000      -1.39170000
C        0.67290000      -3.16800000      -1.45440000
C        0.68240000      -4.62270000      -1.53990000
O        2.02550000      -5.09610000      -1.53910000
H        1.07030000       1.92070000       0.17500000
H       -0.46620000       1.99300000      -0.70270000
H       -0.45460000       1.84640000       1.05780000
H        0.62420000      -0.42800000       0.84210000
H       -2.06510000      -0.10820000      -0.60220000
H       -1.46250000      -1.60870000       0.11850000
H       -1.83610000      -0.21470000       1.14760000
H        0.02900000      -0.11080000      -2.12490000
H        2.51270000      -0.42680000      -2.43910000
H        2.11860000       1.09280000      -1.62160000
H        2.73720000      -0.28790000      -0.69160000
H        0.11580000      -5.03890000      -0.69060000
H        0.15340000      -4.93410000      -2.45580000
H        1.98930000      -6.05630000      -1.59840000
