19
Properties=species:S:1:pos:R:3 gdb_101175=T pbc="F F F"
O       -0.00880000       1.38780000       0.12470000
C       -0.11340000      -0.00440000       0.32620000
C       -1.47290000      -0.52200000      -0.15270000
O       -1.71130000      -0.05780000      -1.48890000
C       -1.57700000      -2.02610000      -0.04320000
C       -1.81090000      -2.70140000       1.30160000
O       -2.03310000      -1.92560000       2.43840000
C       -2.88850000      -2.71860000       0.24470000
O       -3.98440000      -1.87430000       0.49450000
H       -0.42670000       1.55080000      -0.73140000
H        0.68910000      -0.55140000      -0.20490000
H       -0.00070000      -0.20440000       1.39610000
H       -2.25380000      -0.04050000       0.43930000
H       -1.14080000      -0.56230000      -2.08060000
H       -0.91400000      -2.56430000      -0.71960000
H       -1.25820000      -3.60690000       1.53180000
H       -2.88710000      -1.49000000       2.30480000
H       -3.12610000      -3.63350000      -0.29360000
H       -4.67090000      -2.40130000       0.91830000
