15
Properties=species:S:1:pos:R:3 gdb_45125=T pbc="F F F"
O       -0.15850000       0.09370000      -0.56460000
C       -0.07850000       1.20460000      -0.11380000
C       -1.27680000       2.14280000      -0.02680000
C       -1.19070000       3.11150000       1.12720000
O       -0.59540000       2.59810000       2.32790000
C        0.11050000       3.60650000       1.59040000
C        1.38570000       3.15520000       0.92100000
C        1.30850000       1.73180000       0.38100000
O        2.27110000       1.01660000       0.30340000
H       -1.33690000       2.70180000      -0.97250000
H       -2.17990000       1.52790000       0.02920000
H       -2.07150000       3.73080000       1.29420000
H        0.15130000       4.57650000       2.08490000
H        1.61590000       3.82420000       0.07850000
H        2.23950000       3.20830000       1.60300000
