15
Properties=species:S:1:pos:R:3 gdb_12653=T pbc="F F F"
C        0.19210000       1.50750000      -0.14880000
C       -0.10470000       0.01460000       0.05130000
N        0.33060000      -0.79540000      -1.11280000
C        1.72020000      -1.23050000      -0.86670000
C        1.85910000      -1.35850000       0.64460000
O        2.68720000      -1.94520000       1.28570000
C        0.66530000      -0.55090000       1.24230000
O        0.44070000      -0.42030000       2.41500000
H        1.26080000       1.68590000      -0.30670000
H       -0.34440000       1.87460000      -1.02690000
H       -0.12000000       2.07540000       0.73190000
H       -1.17760000      -0.11910000       0.21530000
H       -0.25920000      -1.61780000      -1.17800000
H        1.94840000      -2.17040000      -1.37370000
H        2.43100000      -0.48020000      -1.24020000
