17
Properties=species:S:1:pos:R:3 gdb_52114=T pbc="F F F"
O       -0.37790000       0.36870000       0.65980000
C        0.00790000       1.13000000      -0.18580000
C        1.28440000       1.94300000      -0.06120000
O        1.50990000       2.59190000      -1.30000000
C        2.54580000       3.49670000      -1.28640000
C        2.46830000       4.85470000      -0.61700000
C        2.74270000       4.74500000      -2.09630000
O        4.12390000       4.45970000      -2.32980000
C        3.99830000       3.17980000      -1.64940000
H       -0.54650000       1.31120000      -1.13270000
H        1.16250000       2.67190000       0.75510000
H        2.11250000       1.27410000       0.21470000
H        1.45450000       5.16020000      -0.37420000
H        3.24460000       5.21020000       0.05510000
H        2.17190000       5.22380000      -2.88230000
H        4.72850000       3.06150000      -0.84100000
H        4.08130000       2.35270000      -2.36330000
