19
Properties=species:S:1:pos:R:3 gdb_115467=T pbc="F F F"
C        0.02290000       1.50500000      -0.16330000
C       -0.00840000      -0.02070000      -0.05030000
C       -1.42900000      -0.56150000       0.17120000
O       -2.28420000      -0.18860000      -0.91470000
C       -2.90450000      -1.33640000      -1.49370000
C       -2.34280000      -2.50640000      -0.72900000
C       -2.67850000      -3.90330000      -1.00510000
O       -3.44220000      -4.25160000      -1.87870000
C       -1.51680000      -2.05900000       0.22140000
H        1.03920000       1.86360000      -0.35010000
H       -0.61760000       1.83940000      -0.98320000
H       -0.33560000       1.97700000       0.75830000
H        0.39660000      -0.47790000      -0.96080000
H        0.62150000      -0.35380000       0.78470000
H       -1.82450000      -0.12090000       1.10420000
H       -3.99760000      -1.27030000      -1.39680000
H       -2.67610000      -1.39120000      -2.56650000
H       -2.17540000      -4.64440000      -0.34580000
H       -0.97030000      -2.66510000       0.93470000
