18
Properties=species:S:1:pos:R:3 gdb_27245=T pbc="F F F"
C        0.10380000       1.49500000      -0.08900000
C       -0.07510000       0.02280000       0.01500000
C       -1.15260000      -0.80000000       0.06410000
C       -2.65440000      -0.84210000       0.08330000
C       -2.91630000      -2.35050000      -0.21300000
N       -1.70410000      -3.05600000       0.27460000
C       -0.65440000      -2.13520000       0.16520000
C        0.69890000      -2.06300000       0.16830000
O        1.06430000      -0.73130000       0.07190000
H        0.70380000       1.76560000      -0.96530000
H       -0.86960000       1.98350000      -0.17590000
H        0.61220000       1.90320000       0.79240000
H       -3.05000000      -0.57150000       1.07020000
H       -3.14510000      -0.19970000      -0.65300000
H       -3.80920000      -2.72990000       0.29170000
H       -3.05140000      -2.49060000      -1.29610000
H       -1.55240000      -3.95800000      -0.15590000
H        1.50950000      -2.76870000       0.21010000
