14
Properties=species:S:1:pos:R:3 gdb_64758=T pbc="F F F"
O       -0.10220000       1.39770000       0.08080000
C        0.01100000       0.00510000       0.05100000
C        0.93710000      -0.53640000       1.15900000
C        2.25280000       0.09590000       1.09810000
N        3.26940000       0.64140000       1.03570000
C       -1.35590000      -0.69320000      -0.06800000
O       -0.97180000      -1.25680000      -1.36350000
C        0.24150000      -0.61930000      -1.35260000
O        1.08170000      -0.60980000      -2.18960000
H        0.76320000       1.78150000      -0.11390000
H        0.48640000      -0.31150000       2.13210000
H        1.04520000      -1.62330000       1.07980000
H       -1.57540000      -1.48430000       0.65130000
H       -2.19200000      -0.00100000      -0.17040000
