19
Properties=species:S:1:pos:R:3 gdb_20059=T pbc="F F F"
C       -0.15650000       1.34670000      -0.18280000
C        1.27180000       0.98190000       0.01830000
N        0.23130000      -0.04160000       0.05170000
C       -0.09750000      -0.58670000       1.37080000
C       -1.51780000      -1.20610000       1.39330000
C       -1.40230000      -2.49830000       2.24060000
C        0.08100000      -2.78180000       2.22250000
C        0.78390000      -1.75540000       1.75030000
H       -0.64900000       1.88330000       0.62730000
H       -0.53730000       1.57160000      -1.17480000
H        1.95600000       0.93430000      -0.82400000
H        1.73000000       1.27870000       0.96090000
H       -0.00680000       0.20780000       2.13960000
H       -2.27640000      -0.51470000       1.76830000
H       -1.77700000      -1.45970000       0.36130000
H       -1.75540000      -2.34500000       3.27010000
H       -1.99910000      -3.32310000       1.83460000
H        0.50270000      -3.71130000       2.59030000
H        1.86390000      -1.71010000       1.66550000
