18
Properties=species:S:1:pos:R:3 gdb_98558=T pbc="F F F"
O       -0.54790000       1.52650000       0.67720000
C       -0.77560000       0.16810000       0.91390000
C       -0.90060000      -0.59340000      -0.39840000
O       -0.71180000      -0.00920000      -1.45020000
C       -1.25320000      -2.02660000      -0.36650000
C       -1.30270000      -2.96820000      -1.57830000
C       -2.57260000      -3.65220000      -0.97470000
C       -2.49740000      -2.69350000       0.22130000
N       -1.22520000      -2.75350000       0.90250000
H       -0.45200000       1.59990000      -0.28630000
H        0.04110000      -0.29470000       1.49110000
H       -1.68630000       0.01460000       1.51200000
H       -1.51200000      -2.43050000      -2.50330000
H       -0.41410000      -3.59040000      -1.72140000
H       -3.46020000      -3.50010000      -1.59160000
H       -2.50000000      -4.71430000      -0.72020000
H       -3.32930000      -2.23010000       0.73970000
H       -0.76240000      -3.65700000       0.81550000
