19
Properties=species:S:1:pos:R:3 gdb_17660=T pbc="F F F"
C        0.10650000       1.59890000      -0.42160000
C        0.03740000       0.10340000      -0.10420000
C        1.09630000      -0.72910000      -0.87270000
O        1.92150000      -0.84600000       0.30370000
C        0.88190000      -0.29190000       1.13490000
N       -1.27270000      -0.53990000      -0.10460000
C       -2.45730000       0.16180000       0.37440000
C       -2.29640000      -0.16210000      -1.07120000
H        1.14900000       1.92790000      -0.38410000
H       -0.27160000       1.82540000      -1.42370000
H       -0.45180000       2.19950000       0.30370000
H        0.71480000      -1.70030000      -1.20990000
H        1.62010000      -0.22730000      -1.69500000
H        1.25050000       0.52650000       1.76470000
H        0.39790000      -1.05400000       1.75720000
H       -3.12120000      -0.42470000       1.00350000
H       -2.38010000       1.20970000       0.65450000
H       -2.11260000       0.67230000      -1.74390000
H       -2.84060000      -0.98960000      -1.51820000
