16
Properties=species:S:1:pos:R:3 gdb_45466=T pbc="F F F"
N       -0.17650000       1.27940000      -0.10020000
C       -0.06360000       0.03140000       0.11590000
O       -1.13070000      -0.57390000       0.70660000
C       -1.21760000      -1.98050000       0.74430000
C       -1.63280000      -2.75170000      -0.52660000
O       -0.55710000      -3.69850000      -0.32030000
C        0.06210000      -2.83750000       0.67680000
C        1.22100000      -2.08920000       0.10600000
C        1.12830000      -0.78690000      -0.17070000
H        0.68590000       1.64030000      -0.50510000
H       -1.84800000      -2.21270000       1.60300000
H       -2.61210000      -3.23890000      -0.52580000
H       -1.50840000      -2.17020000      -1.44880000
H        0.33500000      -3.41020000       1.56990000
H        2.12480000      -2.64940000      -0.11660000
H        1.95800000      -0.24950000      -0.61960000
