15
Properties=species:S:1:pos:R:3 gdb_125364=T pbc="F F F"
C       -0.01540000       1.52140000       0.05030000
C       -0.00600000       0.02510000       0.02380000
C       -0.03260000      -0.79610000      -1.09170000
N       -0.01270000      -2.13200000      -0.73470000
C        0.02740000      -2.19010000       0.63690000
C        0.03190000      -0.89320000       1.10680000
O        0.07070000      -0.88530000       2.45110000
N        0.09240000      -2.22800000       2.88170000
C        0.06660000      -2.98530000       1.80230000
H        0.88020000       1.92240000       0.53790000
H       -0.05390000       1.92810000      -0.96390000
H       -0.88010000       1.90990000       0.59990000
H       -0.06490000      -0.51350000      -2.13320000
H       -0.02610000      -2.90320000      -1.37650000
H        0.07780000      -4.05800000       1.92980000
