15
Properties=species:S:1:pos:R:3 gdb_116996=T pbc="F F F"
O       -0.21110000       1.46120000       0.01180000
C        0.00620000       0.05890000       0.00240000
C       -1.36610000      -0.59970000       0.01180000
C       -1.29710000      -2.11240000       0.00320000
O       -0.25310000      -2.73280000      -0.01020000
C       -2.57730000      -2.79570000       0.01190000
C       -3.64580000      -3.37010000       0.01900000
C       -4.84120000      -4.01350000       0.02670000
C       -5.90510000      -4.58490000       0.03390000
H        0.64660000       1.89580000       0.00580000
H        0.56380000      -0.26360000      -0.88820000
H        0.58030000      -0.27290000       0.87910000
H       -1.93800000      -0.27720000       0.89160000
H       -1.95420000      -0.26810000      -0.85380000
H       -6.84020000      -5.08890000       0.03990000
