17
Properties=species:S:1:pos:R:3 gdb_43385=T pbc="F F F"
O       -0.03100000       0.03150000      -0.36140000
C        0.00380000       1.23600000      -0.21350000
C       -1.16670000       2.01020000       0.24290000
C       -1.25600000       3.33820000       0.09220000
C       -0.18820000       4.18880000      -0.53720000
C        1.20430000       3.56130000      -0.48480000
C        1.89010000       3.48120000       0.89630000
O        2.04450000       2.05090000       0.79160000
C        1.29930000       2.01240000      -0.45380000
H       -1.99190000       1.42640000       0.63910000
H       -2.17100000       3.84680000       0.38880000
H       -0.47940000       4.38990000      -1.57850000
H       -0.16400000       5.17390000      -0.05340000
H        1.85070000       4.00290000      -1.24540000
H        2.85580000       3.98980000       0.99460000
H        1.24900000       3.76230000       1.74250000
H        1.86920000       1.52250000      -1.24960000
