24
Properties=species:S:1:pos:R:3 gdb_118112=T pbc="F F F"
C       -2.01560000       3.03050000      -1.08950000
C       -1.27470000       1.75920000      -0.66170000
C       -0.50870000       2.01150000       0.64700000
C        0.34710000       0.84810000       1.14740000
O        1.10240000       1.19250000       2.30120000
N       -2.25710000       0.68830000      -0.45900000
C       -2.97830000       0.16150000      -1.61160000
C       -2.01560000      -0.70040000      -0.87080000
C       -0.75240000      -1.19020000      -1.54690000
H       -1.31510000       3.86200000      -1.21070000
H       -2.53760000       2.88580000      -2.03970000
H       -2.75830000       3.30910000      -0.33510000
H       -0.54640000       1.50780000      -1.45190000
H        0.14830000       2.87900000       0.51400000
H       -1.24190000       2.27550000       1.42170000
H       -0.27980000      -0.03540000       1.33550000
H        1.08730000       0.56950000       0.38870000
H        0.47920000       1.39430000       3.00640000
H       -4.05390000       0.04910000      -1.49650000
H       -2.66490000       0.48280000      -2.60560000
H       -2.42580000      -1.41450000      -0.15690000
H       -0.38690000      -0.49590000      -2.30760000
H        0.05250000      -1.36190000      -0.82500000
H       -0.95620000      -2.14410000      -2.04560000
