18
Properties=species:S:1:pos:R:3 gdb_43757=T pbc="F F F"
N        0.10230000       1.11670000      -0.09980000
C       -0.00100000      -0.12620000       0.01710000
O        0.98110000      -1.08730000       0.28350000
C        0.00940000      -2.15130000       0.03670000
C       -1.04650000      -2.06580000       1.07800000
C       -1.09770000      -1.12040000      -0.13260000
C        0.46520000      -3.31580000      -0.74940000
C        1.46760000      -3.14620000      -1.86400000
C        1.87980000      -3.82370000      -0.58240000
H        1.06660000       1.42110000       0.04450000
H       -1.80120000      -2.84650000       1.05230000
H       -0.81300000      -1.67910000       2.06520000
H       -1.93830000      -1.06350000      -0.80810000
H       -0.30830000      -4.06470000      -0.88840000
H        1.33950000      -3.75100000      -2.75440000
H        1.84790000      -2.14740000      -2.04200000
H        2.52920000      -3.27060000       0.08610000
H        2.03600000      -4.89640000      -0.58410000
