16
Properties=species:S:1:pos:R:3 gdb_23085=T pbc="F F F"
C       -0.07300000       1.54600000      -0.03520000
C        0.02640000       0.05820000       0.00640000
C        0.08400000      -1.05880000      -0.96470000
O        1.21050000      -1.71390000      -0.38410000
C        0.90470000      -0.97720000       0.83600000
C       -0.41870000      -1.58620000       1.29130000
N       -0.89120000      -2.11190000       2.34070000
O        0.11940000      -2.27810000       3.31790000
C       -1.06650000      -1.05480000       0.07150000
H        0.88620000       2.00010000      -0.30610000
H       -0.81560000       1.86020000      -0.77570000
H       -0.37920000       1.95060000       0.93540000
H       -0.07290000      -1.11440000      -2.03450000
H        1.75210000      -0.80370000       1.49110000
H       -0.36920000      -2.69150000       4.03720000
H       -2.11380000      -0.99020000      -0.18760000
