17
Properties=species:S:1:pos:R:3 gdb_10349=T pbc="F F F"
C       -0.49530000       0.68590000       0.27660000
O        0.83230000       0.41210000      -0.20350000
C        0.93860000      -0.42340000      -1.37960000
C        1.23490000      -1.84700000      -0.89350000
N        2.13180000      -1.66890000       0.34100000
H        3.11820000      -1.59920000       0.09410000
H        1.78610000      -0.71990000       0.66360000
H        2.01640000      -2.38750000       1.05290000
C       -0.27010000      -0.50010000      -2.41170000
O       -0.90440000       0.54430000      -2.58730000
O       -0.34820000      -1.64310000      -2.90100000
H       -1.08130000       1.12970000      -0.52800000
H       -0.99460000      -0.22880000       0.62740000
H       -0.37150000       1.37130000       1.11850000
H        1.80910000      -0.02870000      -1.91830000
H        0.32920000      -2.35010000      -0.55720000
H        1.73820000      -2.46440000      -1.63060000
