21
Properties=species:S:1:pos:R:3 gdb_115210=T pbc="F F F"
C        0.12230000       1.56340000       0.01520000
C        0.01000000       0.03520000       0.00020000
C       -1.42960000      -0.49730000       0.00650000
C       -2.20040000      -0.14500000      -1.27120000
N       -3.51980000      -0.75170000      -1.23690000
C       -3.79730000      -1.99540000      -0.70950000
O       -4.85730000      -2.56640000      -0.90310000
N       -2.81440000      -2.51610000       0.10470000
C       -1.45140000      -2.02020000       0.17800000
H        1.16930000       1.87480000       0.07690000
H       -0.29880000       2.01540000      -0.88810000
H       -0.40300000       1.99000000       0.87670000
H        0.53940000      -0.36450000      -0.87520000
H        0.53040000      -0.36860000       0.87790000
H       -1.97220000      -0.05880000       0.85430000
H       -2.32160000       0.93900000      -1.36000000
H       -1.61710000      -0.47680000      -2.14740000
H       -4.21030000      -0.45240000      -1.90630000
H       -3.00500000      -3.46390000       0.38720000
H       -0.80590000      -2.48100000      -0.58890000
H       -1.03010000      -2.29080000       1.15280000
