22
Properties=species:S:1:pos:R:3 gdb_119703=T pbc="F F F"
C       -0.09880000       1.39890000      -0.31940000
C        0.05340000      -0.02460000       0.16620000
N        1.26630000      -0.85900000      -0.01820000
C        2.45430000       0.03560000       0.21600000
C        2.00230000       0.39060000       1.65250000
C        0.76610000      -0.47860000       1.38350000
C        0.19840000      -1.49130000       2.34310000
C        1.21350000      -2.53690000       2.82110000
O        0.64070000      -3.47850000       3.71560000
H        0.70090000       2.06280000       0.01460000
H       -0.12750000       1.42980000      -1.41430000
H       -1.04390000       1.81240000       0.04810000
H       -0.82140000      -0.63200000      -0.06300000
H        3.36640000      -0.56320000       0.18120000
H        2.54980000       0.85530000      -0.50270000
H        2.66400000      -0.02100000       2.41620000
H        1.81570000       1.44170000       1.89410000
H       -0.22290000      -0.97810000       3.21770000
H       -0.63460000      -2.01390000       1.85460000
H        1.66700000      -3.02830000       1.94780000
H        2.02210000      -2.05930000       3.38400000
H       -0.01450000      -3.98550000       3.22580000
