17
Properties=species:S:1:pos:R:3 gdb_10406=T pbc="F F F"
C       -0.21390000       1.51140000      -0.09070000
C        0.06410000       0.00750000      -0.03340000
C        0.84100000      -0.50630000      -1.24600000
C        0.87640000      -2.04570000      -1.47080000
C        0.18850000      -1.72380000      -2.81060000
O        0.11030000      -0.31560000      -2.48160000
C        2.17290000       0.12390000      -1.32850000
N        3.22330000       0.60300000      -1.38380000
H        0.71560000       2.08830000      -0.07320000
H       -0.75550000       1.76450000      -1.00620000
H       -0.82070000       1.82160000       0.76420000
H        0.62720000      -0.25190000       0.87170000
H       -0.87790000      -0.55120000      -0.00150000
H        1.86660000      -2.49570000      -1.52960000
H        0.26410000      -2.59330000      -0.75310000
H        0.80300000      -1.89490000      -3.70120000
H       -0.80460000      -2.15600000      -2.96790000
