18
Properties=species:S:1:pos:R:3 gdb_74892=T pbc="F F F"
C        0.02700000       1.56940000       0.10040000
C       -0.01730000       0.06720000       0.06770000
C       -1.13500000      -0.62640000      -0.23480000
N       -1.29450000      -2.00200000      -0.07820000
C       -0.96910000      -2.91170000      -1.18600000
C       -0.09490000      -2.82820000       0.02700000
C        1.27030000      -2.15640000       0.01470000
C        1.23740000      -0.65470000       0.33590000
O        2.24860000      -0.08860000       0.70660000
H        0.80810000       1.95620000      -0.56180000
H       -0.93370000       1.99970000      -0.19570000
H        0.27100000       1.92900000       1.10580000
H       -2.04130000      -0.11660000      -0.55780000
H       -1.64310000      -3.75270000      -1.31910000
H       -0.59550000      -2.46040000      -2.10220000
H       -0.21140000      -3.62620000       0.75660000
H        1.93750000      -2.62950000       0.73880000
H        1.76240000      -2.25410000      -0.96060000
