16
Properties=species:S:1:pos:R:3 gdb_36548=T pbc="F F F"
N       -0.13890000      -0.82030000      -0.58870000
C       -0.01240000       0.24590000      -0.16130000
C        0.16010000       1.60460000       0.38080000
N        1.52360000       2.09830000       0.24760000
C        1.87260000       2.51510000      -0.89900000
N        3.13340000       2.96100000      -1.23060000
C        3.07650000       3.71650000      -2.47170000
C        1.85080000       3.05030000      -3.11560000
O        1.07100000       2.59150000      -1.99780000
H       -0.58160000       2.25120000      -0.10910000
H       -0.09210000       1.57200000       1.44560000
H        3.72240000       3.25190000      -0.46670000
H        2.91330000       4.79170000      -2.30960000
H        3.98070000       3.58620000      -3.07170000
H        1.23860000       3.73080000      -3.70880000
H        2.13350000       2.18520000      -3.72450000
