16
Properties=species:S:1:pos:R:3 gdb_131839=T pbc="F F F"
O        0.10380000       1.40360000       0.04120000
C        0.08430000      -0.00980000       0.05040000
C       -1.35630000      -0.54510000       0.07360000
N       -1.40120000      -1.99410000       0.08610000
N       -1.43660000      -2.70850000      -1.07610000
N       -1.42220000      -3.96710000      -0.75960000
C       -1.37050000      -4.10060000       0.59540000
C       -1.35330000      -2.83650000       1.14090000
O       -1.30430000      -2.33020000       2.38960000
H       -0.15940000       1.70240000      -0.83510000
H        0.61850000      -0.44440000      -0.80590000
H        0.60400000      -0.32150000       0.96180000
H       -1.87870000      -0.16670000       0.95540000
H       -1.89670000      -0.22180000      -0.82010000
H       -1.35430000      -5.06210000       1.08190000
H       -1.31660000      -3.05470000       3.02320000
