17
Properties=species:S:1:pos:R:3 gdb_93319=T pbc="F F F"
C       -0.22540000       1.52120000      -0.06450000
C        0.04870000       0.02820000       0.03450000
N        0.91550000      -0.44480000      -1.05140000
C        1.32350000      -1.80650000      -0.73690000
C        1.43300000      -1.80590000       0.78670000
O        1.84900000      -2.68290000       1.48420000
C        0.83340000      -0.44990000       1.28320000
C        1.91050000       0.45190000       1.67590000
N        2.76310000       1.16590000       1.99150000
H        0.70890000       2.08740000      -0.05290000
H       -0.75490000       1.74540000      -0.99640000
H       -0.85410000       1.85820000       0.76500000
H       -0.91620000      -0.51330000       0.06340000
H        0.47460000      -0.35780000      -1.95890000
H        0.59210000      -2.59030000      -1.00680000
H        2.28100000      -2.07640000      -1.19280000
H        0.19220000      -0.63680000       2.14830000
