23
Properties=species:S:1:pos:R:3 gdb_112939=T pbc="F F F"
C        0.27920000       1.45820000      -0.12210000
C        0.13390000      -0.05910000       0.03130000
C       -1.31710000      -0.51720000       0.08660000
C       -2.19140000      -0.40490000      -1.19650000
C       -2.77190000      -1.81350000      -0.91230000
C       -1.60420000      -2.04410000       0.11440000
C       -4.11920000      -1.81200000      -0.21420000
C       -4.82260000      -3.15590000      -0.12940000
O       -4.59670000      -0.80990000       0.27090000
H        1.33120000       1.75570000      -0.17260000
H       -0.21120000       1.81220000      -1.03550000
H       -0.17730000       1.98620000       0.72230000
H        0.63780000      -0.56370000      -0.80510000
H        0.65180000      -0.38910000       0.94210000
H       -1.83100000      -0.02640000       0.91990000
H       -2.92140000       0.40490000      -1.22880000
H       -1.58660000      -0.39320000      -2.10850000
H       -2.79020000      -2.52230000      -1.74510000
H       -0.79350000      -2.62630000      -0.33370000
H       -1.86390000      -2.49390000       1.07700000
H       -4.13500000      -3.93810000       0.20980000
H       -5.67980000      -3.09110000       0.54180000
H       -5.16740000      -3.44960000      -1.12820000
