19
Properties=species:S:1:pos:R:3 gdb_32432=T pbc="F F F"
C        0.24220000       0.96590000      -0.65300000
N       -0.03550000       0.00970000       0.42360000
C       -1.28520000      -0.66510000       0.32870000
C       -2.58420000      -0.23780000       0.52470000
N       -3.40360000      -1.31110000       0.29750000
C       -2.66940000      -2.43710000      -0.04640000
C       -3.29080000      -3.75820000      -0.34530000
C       -1.35200000      -2.04280000      -0.02880000
O       -0.26170000      -2.81310000      -0.29330000
H        1.23650000       1.40010000      -0.50560000
H        0.23930000       0.43710000      -1.61060000
H       -0.49040000       1.78530000      -0.72150000
H        0.07110000       0.46280000       1.32400000
H       -2.98150000       0.72270000       0.81130000
H       -4.40450000      -1.29490000       0.37630000
H       -3.93070000      -3.73340000      -1.23750000
H       -2.50150000      -4.49120000      -0.52720000
H       -3.90360000      -4.13080000       0.48610000
H        0.49460000      -2.23840000      -0.10000000
