16
Properties=species:S:1:pos:R:3 gdb_20116=T pbc="F F F"
O       -0.09880000       0.24340000       0.56990000
C       -0.16270000       1.45580000       0.50470000
C        1.05920000       2.31820000       0.46650000
C        2.16590000       1.94310000       1.40030000
N        2.29530000       1.69140000      -0.02990000
N       -1.36460000       2.15370000       0.53880000
C       -1.89800000       2.93750000      -0.56460000
C       -2.55940000       1.66950000      -0.10990000
H        0.91760000       3.36040000       0.19980000
H        2.80210000       2.72880000       1.79710000
H        1.98120000       1.10120000       2.06090000
H        2.07460000       0.70950000      -0.20040000
H       -2.32390000       3.90150000      -0.30150000
H       -1.36130000       2.91200000      -1.50990000
H       -2.45430000       0.78460000      -0.73130000
H       -3.47150000       1.72110000       0.47710000
