18
Properties=species:S:1:pos:R:3 gdb_30100=T pbc="F F F"
C       -0.24180000       1.52640000      -0.21460000
C       -0.16450000       0.03940000       0.02740000
C        1.07180000      -0.72720000      -0.27180000
N        0.67750000      -0.52460000       1.12320000
C        1.47020000       0.33790000       1.88500000
N        2.60940000       0.91430000       1.56690000
C        2.99130000       1.61310000       2.69380000
C        2.07340000       1.45940000       3.69470000
N        1.09910000       0.63660000       3.16320000
H        0.73840000       1.99620000      -0.10750000
H       -0.60990000       1.71900000      -1.22780000
H       -0.93340000       2.00600000       0.48700000
H       -1.11250000      -0.48860000      -0.05390000
H        1.01370000      -1.75660000      -0.61470000
H        1.93740000      -0.16720000      -0.61300000
H        3.90640000       2.18520000       2.71350000
H        2.01670000       1.83770000       4.70150000
H        0.29010000       0.26510000       3.63120000
