23
Properties=species:S:1:pos:R:3 gdb_89718=T pbc="F F F"
C        0.00680000       1.50330000       0.03430000
N        0.07680000       0.06070000       0.03550000
C        1.03640000      -0.59690000      -0.88090000
C        1.42100000      -1.53890000       0.26220000
C        0.66400000      -0.60780000       1.21560000
N        1.30470000      -2.99350000       0.17750000
C        2.61790000      -2.37630000       0.49510000
C        3.65610000      -2.52640000      -0.59810000
C        3.15260000      -2.50180000       1.90770000
H        0.98640000       1.98990000       0.21200000
H       -0.37510000       1.85560000      -0.92970000
H       -0.68540000       1.84400000       0.81180000
H        0.58290000      -1.05460000      -1.76610000
H        1.86670000       0.05790000      -1.19490000
H        1.33520000       0.03950000       1.80640000
H       -0.07090000      -1.06030000       1.89360000
H        0.87030000      -3.35790000       1.02390000
H        3.19110000      -2.47290000      -1.58490000
H        4.41690000      -1.74060000      -0.52730000
H        4.16450000      -3.49410000      -0.51800000
H        3.58750000      -3.49500000       2.07040000
H        3.94040000      -1.76390000       2.09800000
H        2.36620000      -2.35050000       2.65370000
