21
Properties=species:S:1:pos:R:3 gdb_104626=T pbc="F F F"
C       -0.00640000       1.35500000       0.38810000
C       -0.19240000      -0.15010000       0.17770000
C       -1.64150000      -0.56770000      -0.13450000
C       -1.89690000      -2.10960000      -0.08600000
C       -2.73840000      -1.85400000       1.19410000
C       -2.15850000      -2.37020000       2.50420000
N       -2.63500000      -0.38850000       0.95570000
C       -2.08020000       0.07310000      -1.38760000
N       -2.40590000       0.56180000      -2.38350000
H        1.03950000       1.58440000       0.60990000
H       -0.29560000       1.91660000      -0.50490000
H       -0.60770000       1.72610000       1.22540000
H        0.44510000      -0.49230000      -0.64680000
H        0.12460000      -0.70030000       1.07070000
H       -2.45950000      -2.49740000      -0.93500000
H       -0.99180000      -2.70500000       0.05110000
H       -3.77790000      -2.19080000       1.10840000
H       -1.10170000      -2.10400000       2.61460000
H       -2.70490000      -1.95640000       3.35930000
H       -2.23980000      -3.46150000       2.55670000
H       -2.30520000       0.16470000       1.73990000
