13
Properties=species:S:1:pos:R:3 gdb_131078=T pbc="F F F"
O        0.24960000       0.23440000      -0.65460000
C        0.46540000       1.21750000      -0.02070000
O        0.58700000       2.43970000      -0.59840000
C        0.89220000       3.54320000       0.24490000
C        2.30440000       3.97690000       0.02600000
C        3.28500000       3.53970000      -0.80900000
N        4.38210000       4.33420000      -0.56640000
N        4.14650000       5.18550000       0.31680000
O        2.76610000       4.98920000       0.74820000
H        0.57970000       1.25310000       1.08000000
H        0.20170000       4.35420000      -0.00770000
H        0.73400000       3.29220000       1.30240000
H        3.28730000       2.75250000      -1.54150000
