17
Properties=species:S:1:pos:R:3 gdb_55671=T pbc="F F F"
C        1.03490000      -0.09830000       0.20010000
C       -0.41380000       0.11550000       0.57480000
O       -0.88500000       1.20340000       0.80390000
C       -1.31420000      -1.12400000       0.72440000
N       -0.99910000      -2.26260000      -0.13260000
C       -0.19920000      -3.30230000       0.33790000
N        0.33040000      -3.25240000       1.49210000
C       -1.54940000      -2.34880000      -1.40410000
O       -1.35090000      -3.24630000      -2.18580000
H        1.56220000       0.85520000       0.23120000
H        1.49330000      -0.81820000       0.88600000
H        1.11190000      -0.52690000      -0.80530000
H       -1.22160000      -1.46550000       1.76020000
H       -2.34520000      -0.80540000       0.55630000
H       -0.11360000      -4.10500000      -0.39520000
H        0.86160000      -4.10140000       1.67460000
H       -2.20360000      -1.48490000      -1.62240000
