15
Properties=species:S:1:pos:R:3 gdb_103406=T pbc="F F F"
O        0.03610000       1.39340000      -0.10040000
C        0.08190000      -0.03200000      -0.11740000
C       -1.34530000      -0.55060000      -0.02430000
O       -2.15400000       0.00770000      -1.02830000
C       -1.62710000      -2.05420000       0.13200000
O       -0.99040000      -2.44390000       1.34200000
C       -2.32800000      -1.89330000       1.43270000
C       -2.06670000      -0.39130000       1.37720000
O       -2.37180000       0.56250000       2.03080000
H       -0.29330000       1.66450000       0.76580000
H        0.52620000      -0.31010000      -1.07890000
H        0.70000000      -0.44050000       0.69010000
H       -1.85540000       0.92520000      -1.11360000
H       -1.79980000      -2.79340000      -0.63990000
H       -3.08620000      -2.49630000       1.91710000
