21
Properties=species:S:1:pos:R:3 gdb_38118=T pbc="F F F"
C       -0.03260000       1.47710000       0.01680000
C        1.34350000       0.82030000      -0.04060000
C        2.28110000       0.47060000      -1.14450000
C        2.23670000      -0.79220000      -1.59110000
C        1.08160000      -1.70700000      -1.18910000
C        1.05180000      -2.15090000       0.32660000
C        0.12570000      -1.11270000       1.06650000
C        0.08770000      -0.01990000       0.01620000
C       -0.16730000      -0.80320000      -1.26720000
H       -0.26320000       2.01290000       0.93270000
H       -0.45930000       1.92600000      -0.87500000
H        1.85200000       0.89920000       0.92150000
H        3.04050000       1.17200000      -1.48050000
H        2.95350000      -1.15360000      -2.32400000
H        1.05030000      -2.57830000      -1.84750000
H        0.65960000      -3.16810000       0.41730000
H        2.05800000      -2.15270000       0.75270000
H       -0.86290000      -1.54360000       1.26620000
H        0.54810000      -0.78610000       2.02050000
H       -0.19510000      -0.19830000      -2.17450000
H       -1.10560000      -1.36720000      -1.19040000
