13
Properties=species:S:1:pos:R:3 gdb_21920=T pbc="F F F"
O       -0.10850000       1.46170000       0.31440000
C        0.05180000       0.09740000      -0.05780000
C       -1.29430000      -0.53770000       0.00290000
C       -1.74640000      -1.83290000       0.12770000
O       -1.00200000      -2.95010000       0.26010000
N       -3.09820000      -1.85050000       0.09470000
N       -3.53340000      -0.61950000      -0.04040000
N       -2.45370000       0.16300000      -0.10840000
H        0.71480000       1.92330000       0.13060000
H        0.46980000       0.01730000      -1.07430000
H        0.73680000      -0.43840000       0.61570000
H       -1.62140000      -3.68620000       0.34380000
H       -2.54480000       1.16540000      -0.16270000
