16
Properties=species:S:1:pos:R:3 gdb_85719=T pbc="F F F"
C        0.01590000       1.56580000       0.10620000
N        0.00270000       0.11860000       0.12240000
C       -1.25310000      -0.59870000       0.39280000
C       -0.43900000      -1.67460000       1.17570000
C       -0.13320000      -2.87560000       0.41880000
N        0.08290000      -3.84190000      -0.17680000
C        0.68830000      -0.58150000       1.21640000
C        2.08010000      -0.95270000       0.97280000
N        3.18800000      -1.22930000       0.79930000
H        1.04140000       1.92040000      -0.03310000
H       -0.58150000       1.92410000      -0.73720000
H       -0.38770000       2.01120000       1.03400000
H       -1.93870000      -0.05980000       1.06560000
H       -1.79540000      -0.93120000      -0.49500000
H       -0.83110000      -1.94810000       2.15540000
H        0.63590000      -0.04770000       2.18070000
