19
Properties=species:S:1:pos:R:3 gdb_116799=T pbc="F F F"
C       -0.36770000       1.34440000      -0.07200000
N        0.33250000       0.07100000       0.03390000
C        0.68690000      -0.67530000      -1.01300000
N        1.28830000      -1.82760000      -0.96300000
H        1.49130000      -2.23850000      -0.05800000
C        1.57220000      -2.71640000      -2.12100000
C        0.86230000      -4.04710000      -2.01090000
C        1.53740000      -5.06780000      -3.06550000
O        2.72120000      -4.77910000      -3.33240000
O        0.78420000      -5.97450000      -3.42400000
H        0.22070000       2.14740000       0.38100000
H       -0.52320000       1.58000000      -1.12610000
H       -1.34300000       1.29270000       0.42040000
H        0.54350000      -0.26500000       0.96270000
H        0.44580000      -0.28580000      -1.99690000
H        1.28880000      -2.16070000      -3.01950000
H        2.64560000      -2.92310000      -2.17420000
H        1.02250000      -4.47830000      -1.01250000
H       -0.21520000      -3.97260000      -2.17910000
