20
Properties=species:S:1:pos:R:3 gdb_61454=T pbc="F F F"
C        0.08040000       1.64610000       0.09400000
C       -0.00210000       0.11410000       0.00660000
N        0.60900000      -0.39220000      -1.20930000
C       -0.10090000      -0.61470000      -2.35390000
C        0.72250000      -1.08470000      -3.54350000
O       -1.30560000      -0.44380000      -2.42380000
C        0.65380000      -0.53800000       1.21330000
C        1.14170000      -1.91890000       1.21680000
O        2.05600000      -0.81750000       1.09750000
H        1.12300000       1.97980000       0.11620000
H       -0.41380000       2.09420000      -0.77120000
H       -0.41520000       2.01090000       0.99980000
H       -1.05630000      -0.17950000      -0.03000000
H        1.61050000      -0.50770000      -1.19090000
H        0.22060000      -1.94050000      -4.00000000
H        0.75150000      -0.28610000      -4.29080000
H        1.74800000      -1.36090000      -3.28500000
H        0.37000000      -0.09650000       2.16920000
H        1.20010000      -2.46710000       2.15520000
H        1.03120000      -2.52590000       0.32120000
