17
Properties=species:S:1:pos:R:3 gdb_5523=T pbc="F F F"
C       -0.35870000       1.63220000      -0.15540000
C        0.06940000       0.16560000       0.02820000
C        0.85750000      -0.37090000      -1.11430000
C        2.12730000      -0.82420000      -1.29070000
C        3.24460000      -0.95450000      -0.31050000
N        2.29340000      -1.19580000      -2.62820000
C        1.14980000      -0.95280000      -3.17240000
O        0.21830000      -0.45150000      -2.33310000
H        0.51390000       2.28490000      -0.25340000
H       -0.96840000       1.74780000      -1.05570000
H       -0.94770000       1.97260000       0.70140000
H        0.67490000       0.06240000       0.93420000
H       -0.82300000      -0.45570000       0.17980000
H        3.58520000      -1.99320000      -0.24350000
H        4.10630000      -0.35260000      -0.61870000
H        2.94160000      -0.62930000       0.68790000
H        0.85030000      -1.09950000      -4.19850000
