17
Properties=species:S:1:pos:R:3 gdb_10204=T pbc="F F F"
O       -0.07990000       1.45530000       0.01310000
C        0.03210000       0.04340000      -0.03300000
C       -1.38400000      -0.51960000       0.01040000
C       -1.43680000      -2.05830000       0.03080000
C       -2.88690000      -2.58380000       0.18080000
O       -2.95450000      -3.98730000       0.25800000
C       -0.84810000      -2.64520000      -1.17780000
N       -0.43060000      -3.13390000      -2.13950000
H        0.79860000       1.83210000      -0.09140000
H        0.53900000      -0.29210000      -0.95030000
H        0.61130000      -0.34240000       0.82250000
H       -1.88180000      -0.14570000       0.91180000
H       -1.94430000      -0.13720000      -0.84940000
H       -0.86320000      -2.43760000       0.88600000
H       -3.29160000      -2.20050000       1.12220000
H       -3.50110000      -2.18190000      -0.63870000
H       -2.68970000      -4.34970000      -0.59530000
