21
Properties=species:S:1:pos:R:3 gdb_91317=T pbc="F F F"
C        0.27280000       1.34110000      -0.48930000
C        0.03020000      -0.09620000      -0.03700000
C       -1.46320000      -0.38720000       0.07460000
O        0.64760000      -1.05120000      -0.95980000
C        1.39540000      -1.66860000       0.10040000
C        2.81540000      -1.06690000       0.26620000
C        2.28100000      -0.22110000       1.46720000
O        2.61990000       1.13260000       1.61920000
C        0.82740000      -0.68590000       1.16430000
H        1.30830000       1.48880000      -0.80920000
H       -0.35740000       1.57410000      -1.35390000
H        0.03420000       2.05200000       0.30770000
H       -1.94410000      -0.25460000      -0.89970000
H       -1.63490000      -1.41570000       0.40390000
H       -1.93870000       0.29050000       0.79250000
H        1.28430000      -2.75480000       0.12240000
H        3.62150000      -1.76160000       0.51430000
H        3.10570000      -0.48470000      -0.61240000
H        2.58870000      -0.69150000       2.40650000
H        2.43010000       1.59120000       0.79630000
H        0.21710000      -0.97430000       2.02050000
