18
Properties=species:S:1:pos:R:3 gdb_88096=T pbc="F F F"
O       -0.05050000       1.35670000      -0.09630000
C        0.03570000      -0.03210000      -0.06960000
C       -0.27160000      -0.78600000       1.21790000
C       -1.23240000      -0.81530000       0.05010000
O       -2.38840000      -0.00030000       0.12070000
C       -3.55900000      -0.79960000      -0.07470000
C       -3.08750000      -2.05500000      -0.77840000
N       -2.28240000      -1.75950000      -1.97920000
C       -1.60770000      -2.05490000      -0.69310000
H       -0.97990000       1.56940000      -0.25200000
H        0.82410000      -0.42330000      -0.70870000
H        0.30290000      -1.67650000       1.45530000
H       -0.57040000      -0.17920000       2.06560000
H       -4.01850000      -1.05970000       0.89030000
H       -4.26810000      -0.20710000      -0.66070000
H       -3.67980000      -2.96190000      -0.72250000
H       -2.24870000      -2.58950000      -2.56720000
H       -1.02420000      -2.96040000      -0.57360000
