16
Properties=species:S:1:pos:R:3 gdb_33912=T pbc="F F F"
N        0.06870000      -1.16330000      -0.09200000
C        0.06330000      -0.00690000      -0.02020000
C        0.04030000       1.40930000       0.10590000
N        0.23290000       2.30110000      -1.06790000
C        1.17670000       2.40390000       0.04710000
C        0.52560000       3.26380000       1.15320000
C       -0.54470000       4.32110000       0.74890000
N       -1.60710000       3.26910000       0.75700000
C       -0.65110000       2.25670000       1.22880000
H        0.66820000       1.74560000      -1.80400000
H        2.23290000       2.20870000      -0.09100000
H        1.15870000       3.46870000       2.01430000
H       -0.67560000       5.09840000       1.50960000
H       -0.41470000       4.78640000      -0.23130000
H       -2.36310000       3.44650000       1.40600000
H       -0.89080000       1.68720000       2.12760000
