17
Properties=species:S:1:pos:R:3 gdb_16755=T pbc="F F F"
C        0.19890000       1.00110000      -0.73120000
C       -0.27610000       0.30240000       0.55410000
C       -1.58370000      -0.39500000       0.37900000
N       -2.69920000      -0.09100000       0.92010000
C       -3.67650000      -1.01360000       0.39440000
C       -3.90440000      -0.95530000      -1.10460000
C       -2.90540000      -1.92470000      -0.54430000
O       -1.56390000      -1.47360000      -0.46830000
H        1.16590000       1.48470000      -0.56750000
H        0.30810000       0.28240000      -1.54750000
H       -0.51590000       1.76810000      -1.04450000
H        0.47130000      -0.43730000       0.86460000
H       -0.39640000       1.02220000       1.36640000
H       -4.47250000      -1.32170000       1.06120000
H       -4.82730000      -1.38720000      -1.47620000
H       -3.54770000      -0.08380000      -1.64370000
H       -2.98830000      -2.99810000      -0.65310000
