19
Properties=species:S:1:pos:R:3 gdb_95533=T pbc="F F F"
O        0.05880000       1.42390000       0.09210000
C        0.00660000       0.01500000       0.00530000
C       -1.41830000      -0.53640000       0.09010000
C       -1.40840000      -2.06960000       0.18240000
C       -0.43260000      -2.69030000      -0.78170000
C        0.50350000      -2.00890000      -1.43880000
C        0.71570000      -0.51370000      -1.27470000
C        0.26170000       0.22250000      -2.45780000
C       -0.13730000       0.85220000      -3.40280000
H       -0.28310000       1.77420000      -0.74080000
H        0.58260000      -0.35020000       0.86390000
H       -1.92160000      -0.09400000       0.95470000
H       -1.96960000      -0.22150000      -0.80510000
H       -1.15420000      -2.38570000       1.20520000
H       -2.41350000      -2.46910000      -0.00120000
H       -0.50860000      -3.76470000      -0.93340000
H        1.16650000      -2.51310000      -2.13610000
H        1.79000000      -0.31640000      -1.15840000
H       -0.47480000       1.38810000      -4.25560000
