21
Properties=species:S:1:pos:R:3 gdb_119351=T pbc="F F F"
C       -0.21310000       1.36280000       0.00180000
C        0.05860000      -0.10860000      -0.00220000
C        0.62110000      -1.01390000      -1.13020000
C        0.09910000      -1.91430000       0.01710000
C       -0.12130000      -3.39750000       0.04580000
C       -0.81610000      -3.87380000       1.32650000
O       -1.02640000      -5.27700000       1.33860000
C        0.79890000      -0.98150000       1.04350000
O       -1.10330000      -1.03470000       0.10380000
H        0.72490000       1.92160000      -0.07650000
H       -0.85200000       1.63860000      -0.84260000
H       -0.71540000       1.65780000       0.92810000
H        0.02410000      -1.03830000      -2.04370000
H        1.69760000      -0.99270000      -1.32180000
H       -0.73020000      -3.67370000      -0.82590000
H        0.84180000      -3.91040000      -0.05940000
H       -0.18370000      -3.66190000       2.19490000
H       -1.75400000      -3.31800000       1.46390000
H       -1.67060000      -5.48260000       0.65380000
H        1.89220000      -0.95770000       1.05520000
H        0.36170000      -0.97150000       2.04330000
