15
Properties=species:S:1:pos:R:3 gdb_127179=T pbc="F F F"
C       -0.01780000       1.45180000      -0.02130000
N       -0.01120000      -0.00460000       0.02220000
C       -0.02000000      -0.64020000       1.24250000
O       -0.03290000      -0.07530000       2.31210000
C        0.00370000      -0.70000000      -1.18760000
C        0.01200000      -0.17150000      -2.44550000
O        0.02600000      -1.15770000      -3.36200000
N        0.02730000      -2.37700000      -2.71700000
C        0.01410000      -2.10860000      -1.43570000
H        0.87670000       1.82280000      -0.53360000
H       -0.90630000       1.81430000      -0.54970000
H       -0.02880000       1.81160000       1.00600000
H       -0.01410000      -1.73840000       1.14620000
H        0.00970000       0.83430000      -2.82960000
H        0.01270000      -2.93110000      -0.73700000
