19
Properties=species:S:1:pos:R:3 gdb_78901=T pbc="F F F"
O       -0.10270000       1.45610000       0.00380000
C        0.00920000       0.03990000      -0.04370000
C       -1.36090000      -0.59980000      -0.11020000
C       -1.98570000      -0.89650000      -1.46720000
C       -1.26380000      -1.98280000      -0.67200000
C       -0.06890000      -1.83760000      -1.65280000
C       -0.92840000      -0.94100000      -2.59560000
C        0.14960000       0.16210000      -2.57580000
C        0.72290000      -0.51410000      -1.29700000
H        0.78520000       1.82260000       0.06480000
H        0.51840000      -0.32140000       0.86510000
H       -2.06140000      -0.40770000       0.69530000
H       -3.05030000      -0.75350000      -1.61070000
H       -1.63700000      -2.88240000      -0.19990000
H        0.47980000      -2.70760000      -2.00590000
H       -1.31550000      -1.31520000      -3.54470000
H        0.83000000       0.06090000      -3.42660000
H       -0.16450000       1.20320000      -2.47760000
H        1.80890000      -0.56000000      -1.18940000
