19
Properties=species:S:1:pos:R:3 gdb_28901=T pbc="F F F"
C        0.02740000       1.53240000      -0.00020000
C        0.01310000       0.02660000      -0.02670000
C       -0.06490000      -0.69420000      -1.21660000
C       -0.07680000      -2.08680000      -1.22160000
C       -0.00980000      -2.77540000      -0.01630000
C        0.06950000      -2.09420000       1.19980000
C        0.14270000      -2.83300000       2.51400000
C        0.07970000      -0.69290000       1.17470000
O        0.15540000       0.04810000       2.32330000
H        0.93800000       1.91500000       0.47380000
H       -0.03100000       1.93990000      -1.01270000
H       -0.81230000       1.92960000       0.58060000
H       -0.11700000      -0.14880000      -2.15440000
H       -0.13800000      -2.62940000      -2.15830000
H       -0.01840000      -3.86140000      -0.00820000
H        1.06460000      -2.60600000       3.06740000
H       -0.70200000      -2.59140000       3.17400000
H        0.12410000      -3.91330000       2.35340000
H        0.19610000      -0.54330000       3.08060000
