18
Properties=species:S:1:pos:R:3 gdb_113516=T pbc="F F F"
C       -0.34430000       1.09540000      -0.24130000
O        0.49430000      -0.00130000       0.07920000
C        0.98520000      -0.65480000      -1.04130000
C        1.55780000      -2.01320000      -0.82810000
C        0.24200000      -1.87200000      -1.55400000
C       -1.14480000      -2.38600000      -1.19390000
O       -1.38280000      -2.65290000      -2.61720000
C       -0.11050000      -2.21630000      -2.95520000
N        0.47180000      -2.15070000      -4.06470000
H        0.19630000       1.85380000      -0.82570000
H       -1.22850000       0.78290000      -0.81360000
H       -0.66570000       1.53700000       0.70430000
H        1.43910000      -0.01280000      -1.79720000
H        2.42180000      -2.30890000      -1.41240000
H        1.51170000      -2.40620000       0.18220000
H       -1.18660000      -3.31120000      -0.61310000
H       -1.85940000      -1.65730000      -0.80390000
H       -0.12400000      -2.48350000      -4.82330000
