12
Properties=species:S:1:pos:R:3 gdb_8796=T pbc="F F F"
O        0.00530000       1.42520000       0.00980000
C       -0.00270000       0.02540000       0.00250000
C       -1.43700000      -0.46190000       0.01290000
O       -2.40720000       0.25540000       0.02560000
C       -1.61150000      -1.99000000       0.00640000
O       -0.66530000      -2.73600000      -0.00620000
C       -3.06580000      -2.52470000       0.01700000
O       -3.27740000      -3.70670000       0.01370000
H        0.92070000       1.71960000       0.00250000
H        0.48660000      -0.41420000      -0.88330000
H        0.50260000      -0.42340000       0.87450000
H       -3.86450000      -1.76340000       0.02740000
