20
Properties=species:S:1:pos:R:3 gdb_111306=T pbc="F F F"
C       -0.29200000       1.58040000      -0.03210000
C       -0.00020000       0.08740000       0.05650000
O       -1.16380000      -0.61950000       0.45770000
C        0.56360000      -0.63000000      -1.17110000
C        1.91980000      -0.16890000      -1.50670000
N        1.77240000      -1.16730000      -0.42520000
C        1.27970000      -0.42750000       0.80490000
C        2.31170000       0.47340000       1.45910000
O        3.42720000      -0.28620000       1.89240000
H        0.56440000       2.15530000      -0.39320000
H       -1.13580000       1.75260000      -0.70700000
H       -0.56060000       1.97810000       0.95470000
H       -1.47490000      -0.23900000       1.28640000
H       -0.03840000      -1.26130000      -1.81600000
H        2.38550000      -0.59000000      -2.39230000
H        2.23430000       0.84600000      -1.28090000
H        0.97370000      -1.19160000       1.52430000
H        2.62520000       1.28630000       0.78510000
H        1.88530000       0.94700000       2.35130000
H        3.65390000      -0.88310000       1.16920000
