16
Properties=species:S:1:pos:R:3 gdb_84200=T pbc="F F F"
C       -0.36110000       1.44820000       0.01920000
C       -0.07940000      -0.05460000       0.08710000
N        0.49630000      -0.56730000      -1.17080000
C        1.60260000      -1.12670000      -0.84470000
N        1.92580000      -1.10800000       0.49980000
C        0.92230000      -0.42740000       1.19030000
N        0.80440000      -0.14420000       2.42060000
C        2.51650000      -1.77040000      -1.81920000
O        3.55550000      -2.28710000      -1.48440000
H        0.55420000       2.00160000      -0.20960000
H       -1.09860000       1.66080000      -0.75810000
H       -0.73870000       1.78700000       0.98670000
H       -1.02360000      -0.58400000       0.26720000
H        2.78170000      -1.48450000       0.87390000
H        1.59050000      -0.48640000       2.97490000
H        2.16110000      -1.72990000      -2.86540000
