19
Properties=species:S:1:pos:R:3 gdb_101563=T pbc="F F F"
C       -0.09840000       1.54550000       0.03700000
C       -0.04580000       0.02530000      -0.01850000
C        0.74600000      -0.52280000      -1.20300000
O        2.08060000      -0.05740000      -1.22870000
O        0.65450000      -0.48590000       1.15920000
C       -0.05480000      -0.65670000       2.27790000
O       -1.23610000      -0.42820000       2.39900000
C        0.79090000      -1.18780000       3.42270000
O        0.01560000      -1.36540000       4.57250000
H        0.91130000       1.96120000       0.01400000
H       -0.64590000       1.92520000      -0.83130000
H       -0.61570000       1.87940000       0.93870000
H       -1.05470000      -0.39680000      -0.01360000
H        0.70150000      -1.62230000      -1.18590000
H        0.27620000      -0.18380000      -2.13200000
H        2.49110000      -0.34390000      -0.40530000
H        1.25300000      -2.13280000       3.09970000
H        1.61400000      -0.47830000       3.59760000
H       -0.88050000      -1.08960000       4.32820000
