17
Properties=species:S:1:pos:R:3 gdb_70269=T pbc="F F F"
O        0.08580000       1.34910000      -0.72330000
C       -0.00450000       0.07320000      -0.17400000
C       -0.18810000      -1.13600000      -1.06930000
C       -1.31620000      -0.66490000      -0.17700000
N       -1.52620000      -1.37740000       1.07410000
C       -0.20280000      -1.37520000       1.75130000
C        0.60970000      -0.16210000       1.19940000
C       -0.34510000      -1.35890000       3.20510000
N       -0.45550000      -1.32830000       4.35490000
H        0.94830000       1.43920000      -1.14370000
H       -0.31390000      -0.92120000      -2.12470000
H        0.32710000      -2.06760000      -0.85700000
H       -2.20610000      -0.25230000      -0.63580000
H       -2.18260000      -0.84480000       1.63850000
H        0.31650000      -2.30350000       1.48710000
H        1.68230000      -0.37650000       1.19060000
H        0.44170000       0.73310000       1.80610000
