17
Properties=species:S:1:pos:R:3 gdb_44062=T pbc="F F F"
N        0.02400000       1.21660000       0.05770000
C       -0.05710000      -0.04040000       0.05040000
O        0.97050000      -0.94870000       0.11100000
C        0.26610000      -2.25670000       0.06760000
C        1.08550000      -3.07430000      -0.95860000
N        0.32240000      -2.33890000      -2.07160000
C       -0.74230000      -2.05880000      -1.01460000
C       -1.26110000      -0.92320000      -0.03070000
C       -0.85320000      -2.00480000       1.11360000
H        1.00010000       1.51300000       0.11980000
H        2.16790000      -2.93230000      -0.95480000
H        0.83520000      -4.13650000      -0.98660000
H        0.84090000      -1.48870000      -2.28210000
H       -1.49130000      -2.84870000      -1.08330000
H       -2.23990000      -0.45440000      -0.08470000
H       -1.58020000      -2.81300000       1.19400000
H       -0.58450000      -1.60620000       2.09390000
