12
Properties=species:S:1:pos:R:3 gdb_130908=T pbc="F F F"
O       -0.12110000      -0.01740000      -0.00190000
C       -0.02600000       1.17870000       0.00680000
C        1.26550000       1.94610000      -0.00090000
N        2.35700000       1.24310000      -0.01820000
O        3.54010000       1.91630000      -0.02540000
C        3.66710000       3.32450000      -0.01550000
O        4.77590000       3.77310000      -0.02330000
C        2.41040000       4.05570000       0.00390000
C        1.24520000       3.38510000       0.01090000
H       -0.92120000       1.83980000       0.02160000
H        2.48210000       5.13630000       0.01190000
H        0.28880000       3.89930000       0.02530000
