23
Properties=species:S:1:pos:R:3 gdb_118194=T pbc="F F F"
C       -0.44330000       1.58440000      -0.26750000
C       -0.21140000       0.12110000       0.07140000
O       -1.42620000      -0.57960000      -0.12740000
C       -1.34470000      -1.99440000       0.02550000
C       -1.31620000      -2.41360000       1.49630000
C       -2.55800000      -2.56470000      -0.71870000
C       -2.48050000      -2.19280000      -2.20090000
C       -3.50220000      -1.19970000      -2.70920000
O       -1.61710000      -2.66180000      -2.90680000
H        0.47530000       2.15960000      -0.11840000
H       -0.75570000       1.69290000      -1.31010000
H       -1.22430000       2.00720000       0.37110000
H        0.57650000      -0.30490000      -0.57050000
H        0.13100000       0.02530000       1.11330000
H       -0.43940000      -2.36070000      -0.48290000
H       -0.44180000      -2.00530000       2.01100000
H       -2.21400000      -2.05890000       2.01250000
H       -1.27230000      -3.50380000       1.58330000
H       -2.54680000      -3.65630000      -0.63910000
H       -3.47640000      -2.18890000      -0.25670000
H       -4.51770000      -1.57990000      -2.54770000
H       -3.40940000      -0.27640000      -2.12650000
H       -3.34480000      -0.99740000      -3.76930000
