17
Properties=species:S:1:pos:R:3 gdb_116766=T pbc="F F F"
C        0.01570000       1.28760000      -0.18020000
O       -0.04300000      -0.13170000      -0.04410000
C        0.60370000      -0.64610000       1.00870000
N        0.59990000      -1.88940000       1.21890000
C        1.30630000      -2.39690000       2.37550000
C        0.35020000      -3.37890000       3.09310000
O       -0.13880000      -4.34410000       2.19320000
C        1.04620000      -4.05640000       4.19770000
N        1.60860000      -4.54170000       5.08190000
H        1.05050000       1.63560000      -0.27450000
H       -0.52860000       1.52760000      -1.09350000
H       -0.46410000       1.78820000       0.66840000
H        1.12340000       0.08940000       1.64120000
H        2.18190000      -2.96600000       2.04190000
H        1.64440000      -1.61780000       3.07530000
H       -0.47380000      -2.79370000       3.53500000
H       -0.29420000      -3.85320000       1.37150000
