18
Properties=species:S:1:pos:R:3 gdb_76049=T pbc="F F F"
C       -0.04610000       1.62400000      -0.18150000
C       -0.02000000       0.12230000      -0.01510000
C        1.29900000      -0.67420000      -0.12330000
C        2.54940000       0.00220000      -0.28680000
N        3.55760000       0.56490000      -0.38000000
C        0.54260000      -0.52340000       1.19440000
C        1.06100000       0.04980000       2.50640000
C        0.47540000      -1.24860000       3.10550000
O       -0.04770000      -1.65290000       1.81110000
H        0.82910000       2.09320000       0.27600000
H       -0.05250000       1.89960000      -1.24050000
H       -0.94260000       2.04580000       0.28440000
H       -0.85750000      -0.41390000      -0.45450000
H        1.23220000      -1.64970000      -0.59320000
H        2.14250000       0.17230000       2.57400000
H        0.56760000       0.96820000       2.82930000
H        1.21170000      -1.96630000       3.48170000
H       -0.32750000      -1.12640000       3.83830000
