20
Properties=species:S:1:pos:R:3 gdb_109438=T pbc="F F F"
C       -0.14670000       1.40500000      -0.28300000
O       -0.21370000       0.16170000       0.40090000
C       -1.38270000      -0.54950000       0.13140000
C       -1.47860000      -1.29090000      -1.19620000
N       -1.43260000      -0.94350000      -2.40240000
O       -1.61360000      -2.52800000      -0.61880000
C       -1.43810000      -1.97510000       0.75280000
C       -0.13820000      -2.47560000       1.35290000
C       -2.66090000      -2.28610000       1.59540000
H        0.80000000       1.86880000       0.00120000
H       -0.18070000       1.26510000      -1.36920000
H       -0.97500000       2.06520000       0.01660000
H       -2.27790000       0.05490000       0.34500000
H       -1.49760000      -1.75220000      -3.02460000
H        0.70790000      -2.23550000       0.70750000
H        0.03390000      -2.00590000       2.32570000
H       -0.18700000      -3.55970000       1.49240000
H       -2.74910000      -3.36410000       1.76050000
H       -2.58160000      -1.79570000       2.57100000
H       -3.57440000      -1.93830000       1.10490000
