20
Properties=species:S:1:pos:R:3 gdb_45367=T pbc="F F F"
O       -0.01250000      -0.11760000      -0.02840000
C       -0.03040000       1.09820000       0.01620000
C       -1.33740000       1.89510000       0.06780000
C       -1.17460000       3.40280000      -0.18990000
C       -0.68550000       3.69490000      -1.63750000
C        0.87180000       3.72320000      -1.55180000
C        1.17210000       3.29910000      -0.09490000
C       -0.00560000       3.91260000       0.67320000
N        1.11840000       1.84450000       0.06600000
H       -2.02100000       1.43130000      -0.64990000
H       -1.77050000       1.72010000       1.06050000
H       -2.11760000       3.91260000       0.02490000
H       -1.04790000       2.94060000      -2.34160000
H       -1.06820000       4.65900000      -1.98360000
H        1.35380000       3.05620000      -2.27060000
H        1.25540000       4.73270000      -1.73270000
H        2.14970000       3.63880000       0.25490000
H        0.06070000       5.00520000       0.65250000
H       -0.05100000       3.58440000       1.71520000
H        1.96510000       1.30870000      -0.06150000
