16
Properties=species:S:1:pos:R:3 gdb_101989=T pbc="F F F"
C       -0.01440000       1.56130000       0.05810000
C       -0.01920000       0.03440000      -0.03480000
C       -1.45630000      -0.56980000       0.02260000
C       -2.21800000      -0.18110000      -1.25550000
O       -3.04860000       0.68250000      -1.29660000
C       -1.42360000      -2.01570000       0.15130000
C       -1.39950000      -3.22220000       0.22150000
C       -1.36770000      -4.58410000       0.31150000
N       -1.33880000      -5.74300000       0.38680000
H        1.01000000       1.93910000      -0.00100000
H       -0.59130000       2.02200000      -0.74870000
H       -0.44330000       1.89990000       1.00670000
H        0.46310000      -0.30070000      -0.96070000
H        0.55670000      -0.40010000       0.78770000
H       -2.00020000      -0.13090000       0.86740000
H       -1.90490000      -0.74870000      -2.15870000
