23
Properties=species:S:1:pos:R:3 gdb_108516=T pbc="F F F"
O       -0.09690000       1.43150000       0.30330000
C       -0.01580000       0.02040000       0.14170000
C       -1.41640000      -0.51290000      -0.07580000
C       -2.32560000      -0.47770000       1.19290000
C       -2.42120000      -2.02840000       1.17990000
C       -1.55980000      -2.08240000      -0.11530000
C       -2.31040000      -2.40980000      -1.41530000
C       -3.06910000      -1.11410000      -1.76640000
C       -2.08840000       0.00290000      -1.36080000
H        0.78920000       1.76850000       0.46380000
H        0.61770000      -0.24560000      -0.72180000
H        0.42920000      -0.45230000       1.03320000
H       -1.84070000      -0.04810000       2.07280000
H       -3.27660000       0.04200000       1.04880000
H       -1.95710000      -2.51400000       2.04200000
H       -3.43190000      -2.43400000       1.07180000
H       -0.63360000      -2.65530000      -0.01500000
H       -1.58950000      -2.63960000      -2.20980000
H       -2.96750000      -3.28020000      -1.31440000
H       -3.36380000      -1.06300000      -2.81850000
H       -3.99010000      -1.04300000      -1.17500000
H       -2.56930000       0.97440000      -1.21890000
H       -1.32980000       0.13000000      -2.14420000
