18
Properties=species:S:1:pos:R:3 gdb_83486=T pbc="F F F"
C       -0.11710000       1.54200000       0.01690000
C        0.05270000       0.02750000       0.03170000
C        1.06170000      -0.58850000      -0.96330000
C        2.40680000      -0.04270000      -0.46530000
N        2.18920000      -0.00130000       1.00500000
C        0.83280000      -0.57500000       1.21570000
C        0.89810000      -2.03750000       0.77090000
O        0.91020000      -3.05700000       1.39590000
O        1.03790000      -1.99230000      -0.59810000
H        0.80950000       2.05550000       0.28170000
H       -0.43970000       1.88850000      -0.97080000
H       -0.88330000       1.84420000       0.73740000
H       -0.91520000      -0.46920000      -0.08670000
H        0.85720000      -0.50230000      -2.02920000
H        3.22210000      -0.70980000      -0.76000000
H        2.61530000       0.95800000      -0.86120000
H        2.89010000      -0.53530000       1.50570000
H        0.46440000      -0.42430000       2.22820000
