14
Properties=species:S:1:pos:R:3 gdb_66525=T pbc="F F F"
O       -0.18820000       1.40690000      -0.00330000
C        0.01490000       0.06110000       0.03180000
C       -0.98870000      -1.04840000       0.17170000
C        0.05330000      -1.00930000      -1.01440000
N        1.23690000      -1.73030000      -0.46320000
C        1.01090000      -0.86860000       0.80440000
C       -0.15120000      -1.86630000       1.17450000
C        0.60040000      -2.85810000       0.28240000
O        0.77810000      -4.02830000       0.20890000
H        0.49500000       1.81110000      -0.55190000
H       -2.05500000      -1.05240000      -0.00120000
H       -0.23140000      -1.03420000      -2.05720000
H        1.87030000      -0.63670000       1.42750000
H       -0.52650000      -2.09410000       2.16820000
