19
Properties=species:S:1:pos:R:3 gdb_41916=T pbc="F F F"
C       -0.01270000       1.51490000      -0.21120000
C        1.37910000       2.14590000       0.04130000
C        2.29820000       1.28140000       0.91560000
O        1.91070000       1.18010000       2.26290000
C        0.66880000       0.51840000       2.51050000
C        0.28210000      -0.49170000       1.44450000
C       -0.03930000       0.01430000       0.03860000
C        1.24980000      -0.71260000       0.31390000
O        2.45630000       0.00070000       0.32810000
H       -0.76900000       2.00010000       0.41770000
H       -0.31200000       1.71260000      -1.24480000
H        1.90470000       2.27540000      -0.91000000
H        1.28590000       3.13620000       0.49600000
H        3.30170000       1.71240000       0.94700000
H        0.79500000       0.00960000       3.47140000
H       -0.12780000       1.26820000       2.64210000
H       -0.28440000      -1.34190000       1.80980000
H       -0.80300000      -0.53700000      -0.50120000
H        1.41100000      -1.70890000      -0.08150000
