21
Properties=species:S:1:pos:R:3 gdb_89426=T pbc="F F F"
C        0.07170000       1.60000000       0.02980000
C       -0.00660000       0.06900000       0.01810000
C        0.62560000      -0.52230000      -1.26030000
C        0.68410000      -2.04990000      -1.23240000
O       -0.27610000      -2.71000000      -2.01700000
C        2.01040000      -2.73970000      -1.01210000
C        0.95300000      -2.69080000       0.09240000
C        1.09480000      -1.79570000       1.26720000
C        0.64800000      -0.53880000       1.24170000
H        1.11400000       1.93940000       0.02510000
H       -0.42410000       2.02790000      -0.84780000
H       -0.40960000       2.01410000       0.92200000
H       -1.07030000      -0.21480000       0.02370000
H        0.05050000      -0.21150000      -2.14020000
H        1.63390000      -0.10580000      -1.37180000
H       -0.03330000      -2.58730000      -2.94170000
H        2.15760000      -3.69820000      -1.49810000
H        2.90100000      -2.13000000      -0.89890000
H        0.44710000      -3.63700000       0.26460000
H        1.56320000      -2.20010000       2.16140000
H        0.74700000       0.09380000       2.12120000
