19
Properties=species:S:1:pos:R:3 gdb_121337=T pbc="F F F"
O        0.20840000       1.40020000       0.41460000
C        0.11910000      -0.00080000       0.20230000
C       -1.33060000      -0.45840000       0.00330000
C       -1.48130000      -1.97570000      -0.15340000
C       -2.91210000      -2.52610000      -0.07570000
C       -2.80980000      -3.80870000      -0.90940000
O       -1.79520000      -3.54360000      -1.89510000
C       -1.00600000      -2.50640000      -1.50930000
O       -0.09560000      -2.11610000      -2.18460000
H        0.06210000       1.83370000      -0.43180000
H        0.73370000      -0.32790000      -0.64430000
H        0.52770000      -0.46570000       1.10780000
H       -1.91890000      -0.12400000       0.86560000
H       -1.75210000       0.03950000      -0.88000000
H       -0.86020000      -2.48000000       0.60260000
H       -3.25590000      -2.71390000       0.94350000
H       -3.60880000      -1.82300000      -0.54520000
H       -2.49450000      -4.66840000      -0.30590000
H       -3.72730000      -4.07130000      -1.43980000
