14
Properties=species:S:1:pos:R:3 gdb_34905=T pbc="F F F"
N       -0.30870000      -1.19670000       0.01420000
C       -0.16420000      -0.05080000       0.03500000
C       -0.02260000       1.39610000       0.04250000
C       -0.27770000       2.13060000       1.37170000
N        0.75320000       1.65290000       2.30730000
C        1.08150000       2.73230000       1.36210000
C        1.43760000       2.04330000       0.03180000
C        2.60450000       1.17620000       0.01410000
N        3.55010000       0.51340000      -0.01490000
H       -0.60660000       1.82070000      -0.77680000
H       -1.22500000       2.52810000       1.70930000
H        0.57490000       2.06990000       3.21920000
H        1.42790000       3.70260000       1.69070000
H        1.50520000       2.75700000      -0.79210000
