18
Properties=species:S:1:pos:R:3 gdb_111486=T pbc="F F F"
O        0.19640000       1.34040000       0.07380000
C        0.10330000      -0.06550000       0.01360000
C       -1.35980000      -0.54210000       0.00520000
C       -1.58450000      -2.03490000      -0.10990000
N       -1.16430000      -2.76230000       1.10750000
C       -2.59640000      -2.47790000       0.89180000
C       -3.06240000      -1.28920000       1.70210000
C       -2.08590000      -0.17280000       1.31040000
O       -1.89870000       0.84230000       1.93910000
H       -0.31330000       1.60760000       0.85180000
H        0.59600000      -0.37850000      -0.91380000
H        0.62730000      -0.55500000       0.84800000
H       -1.88010000      -0.02180000      -0.81240000
H       -1.49440000      -2.52420000      -1.07400000
H       -0.96390000      -3.73220000       0.87880000
H       -3.27390000      -3.29800000       0.68150000
H       -4.07790000      -0.98140000       1.42000000
H       -3.04780000      -1.44570000       2.78350000
