17
Properties=species:S:1:pos:R:3 gdb_36455=T pbc="F F F"
N        0.14150000      -1.17970000      -0.32250000
C        0.03790000      -0.03670000      -0.18800000
C       -0.05440000       1.41080000      -0.01080000
C        1.33170000       2.06450000       0.05930000
N        2.06980000       2.08890000      -1.22540000
C        2.48900000       3.50190000      -1.02180000
C        1.42590000       3.59640000       0.07370000
C        0.40860000       4.61410000       0.33020000
O        1.50870000       4.38950000       1.23050000
H       -0.61240000       1.83690000      -0.85060000
H       -0.61280000       1.61750000       0.90990000
H        1.89730000       1.63960000       0.90060000
H        2.82520000       1.41780000      -1.29830000
H        3.49930000       3.63430000      -0.61230000
H        2.37230000       4.13850000      -1.90460000
H        0.43910000       5.55410000      -0.21840000
H       -0.57020000       4.33170000       0.71490000
