16
Properties=species:S:1:pos:R:3 gdb_23495=T pbc="F F F"
O       -0.17910000       1.32290000       0.00490000
N        0.02230000      -0.07850000       0.00400000
C       -1.08820000      -0.68410000       0.08040000
C       -1.40680000      -2.12590000       0.01120000
C       -2.61450000      -2.38470000       0.92720000
O       -2.84650000      -1.53520000       2.02130000
C       -3.10600000      -0.22620000       1.49330000
C       -2.56000000      -0.27480000       0.06100000
C       -2.86880000      -1.74340000      -0.37620000
H        0.72240000       1.65170000      -0.07330000
H       -0.77490000      -2.92550000      -0.35390000
H       -2.86500000      -3.42040000       1.12220000
H       -4.18650000      -0.02130000       1.50200000
H       -2.59370000       0.50870000       2.11960000
H       -2.83190000       0.55900000      -0.58240000
H       -3.48430000      -2.08160000      -1.19750000
