19
Properties=species:S:1:pos:R:3 gdb_97196=T pbc="F F F"
C        0.14010000       1.43990000       0.08140000
N        0.12120000      -0.01080000       0.05510000
C        0.46160000      -0.61650000      -1.01030000
O        0.89810000       0.07660000      -2.11930000
C        0.83280000      -0.60600000      -3.36780000
C        1.51550000      -1.96880000      -3.31010000
C        0.97750000      -2.74190000      -2.13420000
N        1.00390000      -4.12030000      -2.24170000
C        0.46320000      -2.06990000      -1.08490000
H        1.12680000       1.80770000       0.39670000
H       -0.08630000       1.90430000      -0.88640000
H       -0.58430000       1.79060000       0.82340000
H       -0.21750000      -0.73430000      -3.66340000
H        1.31650000       0.05390000      -4.09240000
H        1.32460000      -2.51070000      -4.24400000
H        2.60360000      -1.85010000      -3.21800000
H        1.71590000      -4.50500000      -2.84430000
H        0.90190000      -4.63510000      -1.37900000
H        0.07520000      -2.57780000      -0.20990000
