12
Properties=species:S:1:pos:R:3 gdb_23993=T pbc="F F F"
C        0.20490000      -1.14150000      -0.00580000
C        0.07730000       0.05590000       0.00220000
C       -0.09870000       1.44660000       0.01200000
C       -1.19720000       2.26270000       0.03230000
N       -0.79950000       3.57550000       0.03330000
C        0.50600000       3.52370000       0.01380000
O        1.00680000       2.25930000       0.00000000
C        1.42170000       4.59430000       0.00600000
C        2.20250000       5.50890000      -0.00060000
H        0.32000000      -2.19740000      -0.01300000
H       -2.23640000       1.97600000       0.04610000
H        2.88930000       6.31950000      -0.00650000
