19
Properties=species:S:1:pos:R:3 gdb_98528=T pbc="F F F"
C       -0.17780000       1.45540000      -0.13060000
N       -0.17540000       0.01560000      -0.30090000
C        0.91260000      -0.67100000      -0.75250000
O        1.97370000      -0.14660000      -1.04650000
C        0.71840000      -2.16360000      -0.87620000
C       -0.44640000      -3.11250000      -0.49300000
N        0.58250000      -4.09290000      -1.08250000
C        0.78660000      -3.01730000      -2.16590000
C        1.61800000      -3.27400000      -0.28640000
H       -0.38370000       1.73370000       0.90890000
H        0.81490000       1.81350000      -0.40660000
H       -0.92320000       1.93380000      -0.77570000
H       -1.01060000      -0.50280000      -0.08530000
H       -0.64730000      -3.28200000       0.56890000
H       -1.37300000      -3.05950000      -1.07270000
H       -0.04510000      -2.94440000      -2.87210000
H        1.74780000      -3.08460000      -2.67890000
H        2.63650000      -3.35910000      -0.66960000
H        1.57540000      -3.44650000       0.79230000
