19
Properties=species:S:1:pos:R:3 gdb_84936=T pbc="F F F"
C        0.75730000       1.32740000      -0.06250000
N        0.07330000       0.03630000       0.03100000
C       -0.50480000      -0.42240000      -1.16380000
C       -1.10630000      -1.57140000      -1.49050000
C       -1.30520000      -2.79890000      -0.65550000
C       -0.44730000      -2.78940000       0.60540000
N       -0.75290000      -1.65180000       1.46720000
C       -0.22100000      -0.38990000       1.32950000
O       -0.02650000       0.32880000       2.29660000
H        1.44770000       1.31040000      -0.90970000
H        0.04710000       2.15280000      -0.19730000
H        1.30710000       1.49890000       0.85970000
H       -0.43220000       0.33530000      -1.93840000
H       -1.48480000      -1.61680000      -2.50730000
H       -2.36080000      -2.90730000      -0.37060000
H       -1.05880000      -3.68850000      -1.25170000
H       -0.63240000      -3.69450000       1.18960000
H        0.61570000      -2.79410000       0.32920000
H       -0.87860000      -1.85720000       2.44650000
