17
Properties=species:S:1:pos:R:3 gdb_68520=T pbc="F F F"
C        0.00300000       1.50190000       0.06720000
C       -0.01310000      -0.00360000      -0.03400000
C        0.73220000      -0.65090000      -1.23870000
C        0.95650000      -2.07210000      -0.68190000
O        1.44550000      -3.02290000      -1.22460000
C        0.40070000      -1.97240000       0.76840000
O        0.70960000      -0.61010000       1.06440000
C       -1.11140000      -1.93630000       0.56800000
C       -1.36570000      -0.72520000       0.07300000
H        1.03080000       1.87550000       0.05790000
H       -0.53310000       1.94750000      -0.77620000
H       -0.47600000       1.82650000       0.99510000
H        0.18150000      -0.66010000      -2.18090000
H        1.70300000      -0.17210000      -1.40150000
H        0.82650000      -2.66450000       1.49100000
H       -1.78100000      -2.77350000       0.70530000
H       -2.30680000      -0.32180000      -0.27630000
