18
Properties=species:S:1:pos:R:3 gdb_65355=T pbc="F F F"
C       -0.34680000       1.57320000       0.21270000
C        0.00120000       0.10520000       0.03800000
N        1.33160000      -0.17780000      -0.55360000
C        1.08570000      -0.56580000       0.83910000
C        1.87730000       0.13110000       1.89680000
C        1.67900000      -0.17900000       3.31880000
O        2.80820000      -0.69000000       2.61140000
C       -1.10000000      -0.73540000      -0.36580000
C       -2.02330000      -1.42000000      -0.72160000
H        0.54470000       2.15630000       0.44920000
H       -0.77640000       1.96830000      -0.71240000
H       -1.08160000       1.70410000       1.01250000
H        1.28000000      -0.98860000      -1.16490000
H        0.92760000      -1.62040000       1.05460000
H        2.26640000       1.11020000       1.62360000
H        1.89630000       0.57780000       4.07120000
H        0.93380000      -0.91940000       3.60770000
H       -2.83680000      -2.02880000      -1.03040000
