20
Properties=species:S:1:pos:R:3 gdb_18116=T pbc="F F F"
C       -0.04020000       1.52110000       0.03780000
C        1.43620000       1.99200000      -0.00210000
C        2.10920000       0.93310000      -0.89190000
C        3.60200000       0.57470000      -0.75740000
C        3.63370000      -0.97760000      -0.87900000
C        2.24050000      -1.38090000      -0.42940000
C        1.41220000      -0.33990000      -0.45510000
C        0.01030000      -0.03980000       0.00850000
H       -0.58310000       1.90740000       0.90460000
H       -0.56320000       1.88820000      -0.85240000
H        1.53820000       3.01830000      -0.36720000
H        1.87230000       1.95270000       1.00420000
H        1.86110000       1.15330000      -1.94330000
H        4.24230000       1.07280000      -1.49070000
H        3.95660000       0.86380000       0.23910000
H        3.82910000      -1.29560000      -1.91410000
H        4.42410000      -1.42910000      -0.26830000
H        1.99070000      -2.39260000      -0.12730000
H       -0.17640000      -0.47080000       0.99820000
H       -0.75690000      -0.45110000      -0.65730000
