18
Properties=species:S:1:pos:R:3 gdb_45787=T pbc="F F F"
O       -0.05360000      -0.10820000       0.05750000
C       -0.05280000       1.09400000      -0.05350000
C       -1.34520000       1.90600000      -0.08070000
C       -1.25680000       3.13170000      -0.95200000
C       -0.12410000       3.56050000      -1.51060000
C        1.19020000       2.90980000      -1.29910000
C        2.08630000       2.73370000      -2.48280000
N        2.42270000       3.71230000      -1.44220000
C        1.22390000       1.91500000      -0.14490000
H       -2.15690000       1.24290000      -0.39880000
H       -1.58280000       2.19040000       0.95660000
H       -2.18610000       3.65980000      -1.14630000
H       -0.13470000       4.43010000      -2.16520000
H        2.74220000       1.86830000      -2.52980000
H        1.73370000       3.08860000      -3.44800000
H        2.19500000       4.65400000      -1.75440000
H        1.30900000       2.49020000       0.78820000
H        2.08370000       1.24600000      -0.20540000
