17
Properties=species:S:1:pos:R:3 gdb_125995=T pbc="F F F"
C        0.18770000       1.53250000       0.05090000
C        0.09270000       0.02280000      -0.01710000
C        0.83590000      -0.63750000      -1.21820000
N        1.39940000      -1.78260000      -0.54500000
N        2.13230000      -2.84460000      -0.96040000
C        2.51400000      -3.40120000       0.18920000
C        2.06070000      -2.70330000       1.34340000
C        1.35590000      -1.65710000       0.79470000
O        0.69380000      -0.54970000       1.18900000
H        1.23340000       1.85260000       0.07300000
H       -0.29700000       1.98010000      -0.82250000
H       -0.31040000       1.90640000       0.94890000
H       -0.95590000      -0.29830000      -0.02170000
H        0.15010000      -0.92030000      -2.02040000
H        1.61780000       0.01200000      -1.63220000
H        3.10540000      -4.30560000       0.16570000
H        2.22290000      -2.93640000       2.38100000
