15
Properties=species:S:1:pos:R:3 gdb_37102=T pbc="F F F"
C       -0.00380000       1.52260000       0.09740000
O        1.15560000       0.69370000      -0.10850000
C       -0.10150000       0.07030000      -0.00260000
C       -0.42660000      -0.99520000       1.04320000
O       -1.83180000      -1.25190000       0.90160000
C       -0.92980000      -1.91100000       0.00020000
C       -0.62700000      -0.88630000      -1.09210000
C       -1.21430000      -0.68050000      -2.41180000
O        0.12540000      -1.18140000      -2.24400000
H       -0.06910000       2.00380000       1.07190000
H       -0.28350000       2.14300000      -0.75230000
H        0.04760000      -1.19280000       1.99640000
H       -0.94130000      -2.99250000      -0.05330000
H       -1.93710000      -1.39600000      -2.80030000
H       -1.28210000       0.32550000      -2.82240000
