15
Properties=species:S:1:pos:R:3 gdb_19749=T pbc="F F F"
O       -0.00180000       0.00840000       0.00890000
C       -0.01940000       1.20810000       0.00960000
C       -1.18660000       2.16020000       0.03290000
C       -0.68640000       3.35330000       0.79790000
C        0.75500000       3.07550000       1.23370000
C        1.14340000       2.22470000       0.00060000
C        0.64120000       3.13200000      -1.13540000
N       -0.75620000       3.40220000      -0.66870000
H       -2.22060000       1.85110000      -0.03540000
H       -1.35670000       4.00120000       1.34940000
H        1.34830000       3.99030000       1.32660000
H        0.81390000       2.51870000       2.17310000
H        2.14430000       1.80740000      -0.05260000
H        1.18400000       4.07750000      -1.22080000
H        0.61490000       2.64290000      -2.11320000
