19
Properties=species:S:1:pos:R:3 gdb_69660=T pbc="F F F"
O       -0.02710000       1.44930000       0.03250000
C       -0.03770000       0.06640000       0.03370000
C       -0.33680000      -0.75290000      -1.18530000
C       -1.26980000      -0.83000000       0.00950000
C       -0.64990000      -1.72210000       1.07730000
C       -1.42090000      -2.07360000       2.36590000
C       -1.17820000      -3.53540000       1.94660000
O       -0.45950000      -3.12020000       0.76750000
C        0.61350000      -0.80400000       1.11630000
H        0.73450000       1.74490000      -0.47820000
H       -0.74110000      -0.18590000      -2.01790000
H        0.26970000      -1.61150000      -1.46130000
H       -2.31940000      -0.57280000      -0.07260000
H       -0.93700000      -1.76160000       3.29310000
H       -2.46450000      -1.75310000       2.37990000
H       -0.55030000      -4.13010000       2.62090000
H       -2.07520000      -4.11430000       1.69590000
H        1.56340000      -1.28760000       0.86650000
H        0.70500000      -0.28010000       2.07150000
