21
Properties=species:S:1:pos:R:3 gdb_115058=T pbc="F F F"
C        0.24290000       1.62320000      -0.28100000
O       -0.30810000       0.36020000      -0.57020000
C        0.61610000      -0.55070000      -1.09880000
C        1.70130000      -1.08550000      -0.12670000
C        1.97880000      -2.45020000      -0.70720000
C        1.02540000      -2.84280000      -1.55290000
C       -0.09310000      -1.81970000      -1.62960000
O       -1.17780000      -2.13700000      -0.77010000
C       -1.99960000      -3.17180000      -1.25280000
H        0.99900000       1.57740000       0.51710000
H        0.70990000       2.07850000      -1.16970000
H       -0.57680000       2.26390000       0.05300000
H        1.13930000      -0.09910000      -1.95940000
H        2.59170000      -0.44960000      -0.08490000
H        1.29850000      -1.15660000       0.89190000
H        2.86100000      -3.02660000      -0.44870000
H        1.00240000      -3.78890000      -2.08060000
H       -0.47840000      -1.66920000      -2.65010000
H       -2.39610000      -2.94270000      -2.25550000
H       -1.47650000      -4.13890000      -1.30390000
H       -2.83810000      -3.26790000      -0.55840000
