18
Properties=species:S:1:pos:R:3 gdb_73044=T pbc="F F F"
C       -0.08810000       1.58450000      -0.01950000
C       -0.02870000       0.08560000       0.02450000
C       -0.94310000      -0.85760000      -0.75690000
O       -0.96100000      -1.81910000       0.33250000
C       -0.19620000      -0.92630000       1.14580000
C        1.16240000      -0.70160000       0.55090000
C        1.89350000      -1.78620000      -0.22980000
C        2.87280000      -2.48720000       0.59990000
N        3.64990000      -3.02290000       1.26650000
H        0.45340000       2.02510000       0.82310000
H        0.36280000       1.97500000      -0.93960000
H       -1.12280000       1.94190000       0.02320000
H       -1.94530000      -0.44180000      -0.91260000
H       -0.57640000      -1.28890000      -1.69630000
H       -0.45550000      -0.84810000       2.19560000
H        1.80550000      -0.08530000       1.17450000
H        1.16770000      -2.51800000      -0.59940000
H        2.41420000      -1.36700000      -1.09860000
