19
Properties=species:S:1:pos:R:3 gdb_88257=T pbc="F F F"
C       -0.34560000       1.52550000      -0.00050000
C       -0.05090000       0.04400000       0.03280000
C        1.30320000      -0.49700000      -0.25830000
C        0.76990000      -0.61390000       1.16380000
C        1.38380000       0.21530000       2.21680000
O        1.98600000       1.25640000       2.03200000
C        1.23400000      -0.31030000       3.66960000
C        1.83290000       0.56200000       4.74510000
O        0.67090000      -1.35840000       3.88590000
H        0.50070000       2.10900000       0.36620000
H       -0.55890000       1.83880000      -1.02840000
H       -1.22180000       1.76910000       0.60980000
H       -0.88260000      -0.58450000      -0.27530000
H        1.40560000      -1.41790000      -0.82120000
H        2.10680000       0.22120000      -0.38690000
H        0.41700000      -1.57720000       1.50610000
H        1.37420000       1.55570000       4.71920000
H        1.68330000       0.09830000       5.72020000
H        2.89870000       0.71700000       4.55160000
