15
Properties=species:S:1:pos:R:3 gdb_24027=T pbc="F F F"
C       -0.70560000      -0.51850000      -1.19850000
C       -0.23380000       0.17940000      -0.34170000
C        0.32610000       1.02150000       0.70720000
C        1.60760000       1.75730000       0.35050000
C        2.23620000       1.65740000      -0.89270000
N        3.36180000       2.31610000      -1.17690000
C        3.86020000       3.08100000      -0.20600000
C        3.23770000       3.18470000       1.03590000
N        2.11480000       2.52730000       1.31900000
H       -1.12540000      -1.13630000      -1.95340000
H       -0.41440000       1.76870000       1.02020000
H        0.52290000       0.41940000       1.60350000
H        1.81690000       1.03000000      -1.67260000
H        4.77670000       3.62440000      -0.42040000
H        3.65410000       3.81220000       1.82010000
