18
Properties=species:S:1:pos:R:3 gdb_52056=T pbc="F F F"
O        0.96850000       0.51050000       1.07590000
C        0.70610000       1.46200000       0.38880000
C        1.12330000       1.59260000      -1.07280000
N        1.18160000       2.98170000      -1.50810000
C        2.41970000       3.66750000      -1.20670000
C        3.68520000       3.37020000      -2.01710000
C        2.93660000       4.66010000      -2.22290000
C        2.59850000       3.97310000       0.19160000
C        2.76170000       4.20750000       1.35990000
H        0.09370000       2.31470000       0.75390000
H        2.05190000       1.02120000      -1.22570000
H        0.33400000       1.09040000      -1.64860000
H        0.97230000       3.06300000      -2.49420000
H        4.64080000       3.40260000      -1.50750000
H        3.59870000       2.60420000      -2.78050000
H        2.35390000       4.77940000      -3.13110000
H        3.37070000       5.57900000      -1.84830000
H        2.89720000       4.41250000       2.39310000
