17
Properties=species:S:1:pos:R:3 gdb_18967=T pbc="F F F"
O        0.03320000       1.43020000       0.16370000
C        0.11270000       0.05280000      -0.16280000
C       -1.26780000      -0.57250000      -0.12860000
C       -1.50620000      -2.06290000       0.10810000
C       -1.20430000      -1.88080000       1.62830000
C       -2.52610000      -2.50490000       2.08220000
C       -2.84730000      -1.70330000       0.81990000
N       -1.91460000      -0.54030000       1.26080000
H       -0.51850000       1.48790000       0.95380000
H        0.53890000      -0.01060000      -1.17030000
H        0.79760000      -0.48150000       0.51530000
H       -1.91450000      -0.09140000      -0.87320000
H       -1.29200000      -2.93250000      -0.52210000
H       -0.23630000      -1.88230000       2.12950000
H       -2.60820000      -3.59230000       2.01160000
H       -2.94520000      -2.12400000       3.01720000
H       -3.80650000      -1.48200000       0.34840000
