19
Properties=species:S:1:pos:R:3 gdb_91411=T pbc="F F F"
C        0.33080000       1.54730000      -0.08580000
C        0.07060000       0.04930000       0.01950000
O        0.47920000      -0.58500000      -1.19810000
C        1.15720000      -1.81940000      -1.05130000
C        0.52420000      -2.70720000       0.05130000
C        1.39280000      -1.88520000       1.05660000
C        2.39350000      -1.67050000      -0.12810000
C        0.70480000      -0.56180000       1.28730000
O        0.61550000      -0.01300000       2.35920000
H        1.39810000       1.74270000      -0.22440000
H       -0.20910000       1.96230000      -0.94030000
H       -0.00160000       2.04170000       0.82930000
H       -1.01340000      -0.11190000       0.14240000
H        1.28260000      -2.21690000      -2.05940000
H       -0.56300000      -2.69720000       0.15990000
H        0.87700000      -3.73890000      -0.01400000
H        1.73160000      -2.32620000       1.99380000
H        3.07860000      -2.51710000      -0.21670000
H        2.95230000      -0.73330000      -0.18130000
