23
Properties=species:S:1:pos:R:3 gdb_96350=T pbc="F F F"
C       -0.04450000       1.57710000      -0.03270000
C        0.06120000       0.04970000       0.00960000
C        0.66830000      -0.53010000      -1.27990000
C        0.79340000      -2.05150000      -1.20290000
O        1.51140000      -2.46060000      -0.04860000
C        0.87030000      -2.02940000       1.13650000
C        0.80900000      -0.49110000       1.25240000
C        2.21680000       0.08440000       1.43450000
O       -0.01690000      -0.15550000       2.37170000
H        0.92160000       2.04620000      -0.24710000
H       -0.73880000       1.88920000      -0.82000000
H       -0.41180000       1.96470000       0.92060000
H       -0.95880000      -0.34900000       0.10750000
H        0.04380000      -0.25640000      -2.13910000
H        1.65880000      -0.09360000      -1.45850000
H       -0.21100000      -2.51000000      -1.19800000
H        1.34110000      -2.45130000      -2.06120000
H       -0.15900000      -2.42030000       1.19260000
H        1.44140000      -2.45270000       1.97100000
H        2.87430000      -0.21090000       0.61330000
H        2.19780000       1.17440000       1.50450000
H        2.66170000      -0.30650000       2.35840000
H        0.48320000      -0.33450000       3.17510000
