16
Properties=species:S:1:pos:R:3 gdb_133806=T pbc="F F F"
O        0.07450000       0.95830000      -1.13070000
C       -0.21770000       0.14190000      -0.01620000
C       -1.69540000      -0.20880000       0.03890000
O       -1.96620000      -0.94550000      -1.15760000
C       -3.31700000      -1.10750000      -1.48860000
C       -3.84660000       0.05360000      -2.32780000
F       -3.08220000       0.26160000      -3.40520000
F       -5.09280000      -0.21530000      -2.74380000
F       -3.88730000       1.20370000      -1.63550000
H       -0.31600000       0.51750000      -1.89470000
H        0.37160000      -0.78900000      -0.02740000
H        0.05920000       0.70420000       0.88150000
H       -1.92790000      -0.82380000       0.92150000
H       -2.29450000       0.70720000       0.07080000
H       -3.40720000      -2.01130000      -2.09910000
H       -3.96270000      -1.21610000      -0.60720000
