21
Properties=species:S:1:pos:R:3 gdb_94539=T pbc="F F F"
C        0.05460000       1.55000000      -0.17830000
C       -0.01190000       0.01750000      -0.06580000
C        0.58480000      -0.46670000       1.25750000
O       -1.36730000      -0.42860000      -0.06130000
C        0.76850000      -0.62420000      -1.23080000
O        0.79730000      -2.07090000      -1.16000000
C       -0.06550000      -2.20310000      -2.30450000
C        0.08220000      -0.70080000      -2.61970000
O       -1.08480000       0.08820000      -2.76480000
H        1.08610000       1.91320000      -0.11810000
H       -0.37510000       1.89210000      -1.12400000
H       -0.51460000       1.99670000       0.64180000
H        0.00250000      -0.06150000       2.08940000
H        0.55070000      -1.55700000       1.30040000
H        1.62380000      -0.14080000       1.36580000
H       -1.76050000      -0.13070000      -0.89180000
H        1.78840000      -0.21910000      -1.24840000
H        0.32920000      -2.91240000      -3.04120000
H       -1.08720000      -2.48280000      -2.01970000
H        0.78030000      -0.50310000      -3.44090000
H       -1.45600000      -0.06080000      -3.64000000
