20
Properties=species:S:1:pos:R:3 gdb_62888=T pbc="F F F"
C       -0.13700000       1.57110000      -0.03350000
C       -0.00470000       0.05340000      -0.00330000
O       -1.28940000      -0.52420000      -0.14050000
C        1.17400000      -0.65260000      -0.78100000
C        2.12630000      -0.16000000       0.35710000
C        0.84360000      -0.65510000       1.09820000
C        0.91120000      -1.86190000       0.13660000
C        0.21680000      -3.13670000      -0.00930000
N        1.67510000      -3.08100000       0.32160000
H        0.80570000       2.10270000       0.09630000
H       -0.55820000       1.88940000      -0.99630000
H       -0.82680000       1.89370000       0.75250000
H       -1.74870000      -0.06340000      -0.84970000
H        1.36060000      -0.65330000      -1.85730000
H        3.01300000      -0.77250000       0.52180000
H        2.36660000       0.90150000       0.40120000
H        0.65220000      -0.66550000       2.17130000
H       -0.41530000      -3.51780000       0.78760000
H       -0.07620000      -3.45440000      -1.00720000
H        2.22480000      -3.29200000      -0.50870000
