18
Properties=species:S:1:pos:R:3 gdb_11797=T pbc="F F F"
O        0.02220000       1.37380000      -0.25880000
C        0.02990000      -0.00110000       0.08670000
C       -1.37130000      -0.55120000       0.13910000
C       -1.73970000      -2.05390000       0.13660000
C       -2.96020000      -1.43970000      -0.58290000
C       -3.67800000      -0.63510000       0.52020000
C       -2.41240000       0.07420000       1.09770000
O       -2.06560000      -0.43390000      -1.15780000
H       -0.48790000       1.44530000      -1.07430000
H        0.62770000      -0.59160000      -0.62440000
H        0.50410000      -0.07950000       1.07130000
H       -1.10900000      -2.62920000      -0.54250000
H       -1.88360000      -2.56940000       1.08980000
H       -3.55340000      -1.97840000      -1.32150000
H       -4.39960000       0.06560000       0.09540000
H       -4.19380000      -1.27200000       1.24390000
H       -2.21570000      -0.16810000       2.14560000
H       -2.43500000       1.15880000       0.98760000
