21
Properties=species:S:1:pos:R:3 gdb_114317=T pbc="F F F"
C       -0.00680000       1.64920000       0.01810000
C       -0.18330000       0.13020000      -0.07920000
C        0.68560000      -0.49700000      -1.16690000
C        2.24010000      -0.59970000      -0.99170000
C        2.18110000      -2.08900000      -1.35460000
C        1.31640000      -2.82420000      -0.36410000
O        1.23840000      -2.49650000       0.99730000
C        0.63820000      -2.01090000      -1.41560000
O       -0.20580000      -2.59150000      -2.35070000
H        1.03090000       1.91390000       0.25000000
H       -0.26900000       2.14220000      -0.92520000
H       -0.63960000       2.07490000       0.80320000
H        0.04760000      -0.34020000       0.88090000
H       -1.23590000      -0.09950000      -0.29540000
H        0.47990000      -0.00840000      -2.12660000
H        2.79940000       0.00430000      -1.70790000
H        2.60890000      -0.38700000       0.01600000
H        2.87540000      -2.61350000      -2.00050000
H        1.24610000      -3.89340000      -0.57290000
H        2.08490000      -2.71360000       1.40290000
H       -0.96720000      -2.95620000      -1.88680000
