14
Properties=species:S:1:pos:R:3 gdb_131226=T pbc="F F F"
O        0.08800000       1.32220000       0.23130000
C        0.07460000      -0.01340000      -0.00230000
C        0.08410000      -0.76670000      -1.14540000
C        0.06390000      -2.14300000      -0.70510000
C        0.04450000      -2.11370000       0.68380000
N        0.01800000      -3.38250000       1.14880000
N        0.02520000      -4.27060000       0.10710000
C        0.05010000      -3.52910000      -0.99920000
N        0.04430000      -0.81830000       1.13400000
H        0.11190000       1.77730000      -0.61600000
H        0.10050000      -0.38290000      -2.15320000
H        0.01210000      -3.73410000       2.08860000
H        0.05730000      -4.02620000      -1.95800000
H        0.06390000      -0.46850000       2.07490000
