21
Properties=species:S:1:pos:R:3 gdb_68845=T pbc="F F F"
C       -0.09430000       1.52320000       0.00820000
C       -0.02820000       0.01530000       0.06520000
C        1.27440000      -0.69620000      -0.24190000
C        0.71030000      -0.74480000       1.16260000
C        1.41730000      -0.09660000       2.32930000
C       -0.09750000      -1.98320000       1.43130000
O       -1.40310000      -1.70800000       1.96430000
C       -1.28050000      -1.99670000       0.56430000
C       -1.30160000      -0.75520000      -0.31380000
H        0.84590000       1.98810000       0.31870000
H       -0.30400000       1.86460000      -1.01260000
H       -0.89030000       1.90860000       0.65580000
H        1.25510000      -1.59700000      -0.84960000
H        2.15250000      -0.07680000      -0.39820000
H        1.90900000       0.83620000       2.03980000
H        0.71010000       0.12800000       3.13490000
H        2.18950000      -0.76000000       2.73670000
H        0.37620000      -2.88830000       1.80830000
H       -1.76050000      -2.91690000       0.24000000
H       -2.20000000      -0.16070000      -0.11050000
H       -1.32020000      -1.02370000      -1.37730000
