17
Properties=species:S:1:pos:R:3 gdb_34453=T pbc="F F F"
C        0.09290000      -1.13370000      -0.00110000
C        0.01600000       0.06770000      -0.01070000
C       -0.07210000       1.49310000      -0.00730000
C       -1.22840000       2.20880000       0.71320000
C       -1.37030000       3.56320000      -0.03280000
C       -0.03610000       3.69340000      -0.75440000
O        1.02880000       3.64420000       0.26180000
C        1.25000000       2.28210000      -0.07230000
C        0.34700000       2.28420000      -1.25310000
H        0.15830000      -2.19320000       0.00760000
H       -2.13950000       1.60900000       0.65880000
H       -0.99050000       2.35790000       1.76950000
H       -2.18680000       3.53470000      -0.76360000
H       -1.54650000       4.40350000       0.64410000
H        0.09190000       4.54630000      -1.42230000
H        2.21950000       1.84180000       0.12620000
H        0.43420000       1.89750000      -2.25800000
