18
Properties=species:S:1:pos:R:3 gdb_79859=T pbc="F F F"
C        0.07170000       1.48170000      -0.31970000
N        0.05280000       0.05060000      -0.01250000
C       -1.05550000      -0.47950000       0.85030000
C       -0.14030000      -1.69970000       1.14970000
O       -0.38880000      -2.24940000       2.42100000
C       -0.56450000      -1.08210000       3.23050000
C       -0.38630000       0.03310000       2.19650000
O       -0.42580000       1.34250000       2.66240000
C        0.75550000      -0.42470000       1.22570000
H        1.05510000       1.73040000      -0.73340000
H       -0.66830000       1.67210000      -1.10500000
H       -0.13080000       2.14590000       0.52740000
H       -2.10420000      -0.46800000       0.54760000
H        0.04130000      -2.45230000       0.38910000
H       -1.56190000      -1.08290000       3.69300000
H        0.19180000      -1.04140000       4.02430000
H       -1.26550000       1.48250000       3.11510000
H        1.83490000      -0.35000000       1.36570000
