18
Properties=species:S:1:pos:R:3 gdb_62857=T pbc="F F F"
C       -0.17560000       1.51460000      -0.06140000
C        0.02660000       0.00500000      -0.04070000
O       -1.18580000      -0.64590000      -0.34870000
C        1.22680000      -0.59710000      -0.84550000
C        2.14320000      -0.18710000       0.33450000
C        0.88290000      -0.58920000       1.16450000
C        0.76140000      -2.07230000       0.78680000
O        0.40920000      -3.01900000       1.43930000
N        1.12210000      -2.04740000      -0.57290000
H        0.73360000       2.08320000       0.13980000
H       -0.56520000       1.81680000      -1.03850000
H       -0.91540000       1.80210000       0.69570000
H       -1.86010000      -0.35870000       0.27620000
H        1.43190000      -0.35270000      -1.88690000
H        3.03780000      -0.79590000       0.46760000
H        2.38650000       0.87260000       0.38110000
H        0.72570000      -0.32850000       2.20890000
H        0.55410000      -2.61770000      -1.18500000
