20
Properties=species:S:1:pos:R:3 gdb_30691=T pbc="F F F"
C       -0.12930000       1.50470000       0.02280000
C       -0.03090000      -0.02910000      -0.02920000
N       -1.29740000      -0.73620000       0.01780000
C       -2.10070000      -0.73820000      -1.19120000
C       -1.94840000      -0.81980000       1.23840000
C       -1.46960000      -0.52490000       2.50120000
N       -2.50500000      -0.86810000       3.36100000
C       -3.52930000      -1.32120000       2.60320000
N       -3.23480000      -1.30470000       1.32060000
H        0.86960000       1.95320000       0.00370000
H       -0.68780000       1.89390000      -0.83420000
H       -0.63600000       1.83470000       0.93410000
H        0.48100000      -0.33090000      -0.95070000
H        0.59120000      -0.39010000       0.79900000
H       -1.47060000      -1.03290000      -2.03690000
H       -2.91120000      -1.45840000      -1.08180000
H       -2.55050000       0.24140000      -1.42270000
H       -0.54060000      -0.12530000       2.86550000
H       -2.49410000      -0.77700000       4.36200000
H       -4.46650000      -1.64910000       3.02730000
