21
Properties=species:S:1:pos:R:3 gdb_79199=T pbc="F F F"
C       -0.23140000       1.58970000      -0.11010000
C        0.11690000       0.11550000       0.00270000
C        1.41960000      -0.59130000      -0.31870000
C        2.76220000       0.09580000       0.00530000
C        3.26060000      -0.70580000       1.24080000
C        2.03250000       0.06200000       1.81060000
O        2.39160000       1.16360000       0.92820000
C        0.84580000      -0.63590000       1.10000000
C        0.23840000      -1.84500000       1.76780000
H       -0.47180000       1.83380000      -1.15170000
H       -1.12600000       1.80530000       0.48610000
H        0.57350000       2.23810000       0.22270000
H       -0.71550000      -0.49820000      -0.34680000
H        1.42590000      -1.45250000      -0.97910000
H        3.41220000       0.41840000      -0.80830000
H        3.23980000      -1.79820000       1.20770000
H        4.20690000      -0.32770000       1.63230000
H        1.93100000       0.34510000       2.85910000
H       -0.38380000      -1.55810000       2.62460000
H       -0.39800000      -2.40250000       1.07340000
H        1.00680000      -2.53450000       2.13790000
