17
Properties=species:S:1:pos:R:3 gdb_41090=T pbc="F F F"
C        0.03500000       1.57200000       0.12180000
O        1.49790000       1.53560000      -0.07890000
C        1.28070000       0.29490000      -0.85560000
C        1.62360000      -1.20090000      -0.69670000
C        1.76410000      -1.37730000       0.81460000
C        0.32460000      -0.93530000       1.09260000
O       -0.44210000      -2.00290000       0.45400000
C       -0.08290000      -1.39550000      -0.75780000
C        0.02110000       0.04530000      -0.13600000
H       -0.23020000       1.91140000       1.12690000
H       -0.44930000       2.19260000      -0.64050000
H        1.13780000       0.56520000      -1.90960000
H        2.29720000      -1.72320000      -1.37480000
H        1.93300000      -2.40460000       1.14200000
H        2.51960000      -0.71220000       1.23840000
H       -0.01360000      -0.71090000       2.10320000
H       -0.57190000      -1.76120000      -1.65950000
