23
Properties=species:S:1:pos:R:3 gdb_111007=T pbc="F F F"
C       -0.01520000       1.33220000      -0.27580000
O       -0.09720000       0.06780000       0.34180000
C       -1.34570000      -0.55660000       0.18310000
C       -1.58540000      -1.29080000      -1.17580000
C       -0.65940000      -2.40710000      -0.61510000
C       -1.31920000      -2.01020000       0.74760000
C       -0.68420000      -2.32010000       2.08160000
C       -2.78400000      -2.43140000       0.50990000
C       -2.98810000      -1.87910000      -0.94180000
H        0.97220000       1.74130000      -0.04820000
H       -0.12970000       1.27000000      -1.36790000
H       -0.78240000       2.02130000       0.11100000
H       -2.15060000       0.11020000       0.53520000
H       -1.39530000      -0.80710000      -2.13450000
H       -0.81240000      -3.42860000      -0.97750000
H        0.39550000      -2.13770000      -0.65510000
H        0.31290000      -1.87590000       2.14900000
H       -1.28580000      -1.92330000       2.90810000
H       -0.58970000      -3.40180000       2.23110000
H       -2.90810000      -3.51680000       0.57180000
H       -3.46640000      -1.97660000       1.23540000
H       -3.77510000      -1.12040000      -0.99570000
H       -3.23220000      -2.66490000      -1.66210000
