16
Properties=species:S:1:pos:R:3 gdb_3066=T pbc="F F F"
C        0.10800000       1.35530000       0.07900000
O       -0.15450000      -0.03330000      -0.06880000
C        0.54190000      -0.65500000      -1.04310000
N        0.38250000      -1.88540000      -1.25670000
C        1.14070000      -2.48870000      -2.29560000
C        1.58210000      -3.91980000      -2.09060000
C        0.48500000      -3.60720000      -3.07280000
H        1.15820000       1.54240000       0.33610000
H       -0.14440000       1.91290000      -0.83160000
H       -0.52540000       1.70310000       0.89590000
H        1.22890000      -0.00200000      -1.60310000
H        1.82340000      -1.84170000      -2.85220000
H        2.55570000      -4.20970000      -2.46980000
H        1.29980000      -4.37880000      -1.15070000
H       -0.53020000      -3.85740000      -2.78910000
H        0.69740000      -3.68020000      -4.13360000
