13
Properties=species:S:1:pos:R:3 gdb_21803=T pbc="F F F"
O       -0.41230000       1.12820000       1.07830000
C        0.04230000       1.25150000      -0.02700000
C        1.47020000       1.69800000      -0.32340000
C        1.49380000       2.85560000      -1.27500000
N        1.82230000       2.66770000      -2.53320000
O        1.71230000       3.91130000      -3.14370000
C        1.31790000       4.80950000      -2.23070000
C        1.15530000       4.21820000      -1.02160000
H       -0.56210000       1.03880000      -0.93650000
H        1.96080000       1.94020000       0.62250000
H        1.99210000       0.85540000      -0.79260000
H        1.19890000       5.82100000      -2.58740000
H        0.84840000       4.66830000      -0.09230000
