19
Properties=species:S:1:pos:R:3 gdb_99530=T pbc="F F F"
C        0.08780000       1.56900000       0.00010000
C        0.01160000       0.02820000       0.03430000
C        0.71420000      -0.48410000       1.20920000
C        1.28510000      -0.86960000       2.19400000
C       -1.45830000      -0.49900000       0.00190000
C       -2.25320000       0.02970000      -1.22000000
O       -3.56040000      -0.49150000      -1.27330000
C       -1.49960000      -1.96000000      -0.01490000
C       -1.57450000      -3.15740000      -0.10500000
H        1.12540000       1.89180000       0.11180000
H       -0.29090000       1.96730000      -0.94420000
H       -0.49050000       2.00420000       0.82090000
H        0.51330000      -0.36280000      -0.86120000
H        1.79240000      -1.22770000       3.05530000
H       -1.96590000      -0.14540000       0.90850000
H       -2.36350000       1.11410000      -1.14720000
H       -1.68320000      -0.19350000      -2.13730000
H       -3.48300000      -1.45370000      -1.24920000
H       -1.61630000      -4.21810000      -0.14330000
