18
Properties=species:S:1:pos:R:3 gdb_122037=T pbc="F F F"
C        0.08220000       1.49250000       0.25450000
C       -0.03330000       0.00440000      -0.08650000
C       -1.45370000      -0.51130000       0.08220000
O       -1.46970000      -1.89860000      -0.25880000
C       -2.72690000      -2.50710000      -0.18610000
C       -2.56410000      -3.91750000      -0.79860000
O       -3.47770000      -4.56040000      -1.22510000
C       -3.22390000      -2.62390000       1.20170000
N       -3.58700000      -2.71270000       2.29530000
H        1.11080000       1.84080000       0.12800000
H       -0.55710000       2.10240000      -0.39290000
H       -0.21020000       1.68870000       1.29150000
H        0.28510000      -0.17640000      -1.11930000
H        0.62940000      -0.58600000       0.55590000
H       -1.79750000      -0.37900000       1.11840000
H       -2.15060000       0.03530000      -0.57320000
H       -3.48860000      -1.97310000      -0.77570000
H       -1.50750000      -4.25380000      -0.80920000
