21
Properties=species:S:1:pos:R:3 gdb_101218=T pbc="F F F"
C       -0.06370000       1.38130000       0.02010000
O       -0.20030000      -0.00650000      -0.17960000
C        0.64920000      -0.56400000      -1.17540000
C        2.09630000      -0.69090000      -0.69030000
C        0.05390000      -1.91620000      -1.55950000
C       -0.26770000      -2.91760000      -0.40110000
C       -1.64350000      -3.13000000      -1.04910000
O       -2.49650000      -3.96060000      -0.92870000
C       -1.44480000      -1.93730000      -1.99500000
H        0.91050000       1.65420000       0.44990000
H       -0.19530000       1.94070000      -0.91920000
H       -0.84610000       1.68270000       0.72120000
H        0.62650000       0.08900000      -2.06570000
H        2.72350000      -1.12930000      -1.47300000
H        2.52260000       0.28270000      -0.43290000
H        2.14800000      -1.33240000       0.19490000
H        0.69190000      -2.38020000      -2.31640000
H        0.35720000      -3.80570000      -0.28160000
H       -0.36310000      -2.40820000       0.56300000
H       -1.98200000      -1.05590000      -1.63050000
H       -1.68530000      -2.10160000      -3.04810000
