22
Properties=species:S:1:pos:R:3 gdb_78235=T pbc="F F F"
C       -0.15380000       1.56600000      -0.02780000
C       -0.00880000       0.06000000      -0.11430000
C        0.65240000      -0.70120000      -1.20980000
C        1.64830000       0.00180000      -2.12350000
O        0.97460000       0.94390000      -2.95080000
C        2.69980000       0.62020000      -1.16690000
C        2.52760000      -0.15160000       0.16190000
C        2.81900000       0.64510000       1.43010000
N        1.18100000      -0.77270000       0.16620000
H        0.60320000       2.12300000      -0.57500000
H       -1.12280000       1.84170000      -0.45810000
H       -0.15520000       1.89660000       1.01640000
H       -0.88710000      -0.43650000       0.29890000
H        0.17710000      -1.59580000      -1.60480000
H        2.12540000      -0.76400000      -2.75360000
H        1.60790000       1.28140000      -3.59200000
H        3.71760000       0.52720000      -1.55840000
H        2.49880000       1.68800000      -1.04630000
H        3.21250000      -1.00980000       0.14570000
H        2.20750000       1.54960000       1.49040000
H        2.61680000       0.03570000       2.31570000
H        3.87070000       0.94840000       1.45730000
