25
Properties=species:S:1:pos:R:3 gdb_42099=T pbc="F F F"
C        0.23180000       1.49390000       0.43170000
C        1.66780000       1.85360000      -0.05220000
C        2.06290000       0.74720000      -1.06060000
C        1.14770000      -0.45720000      -0.72990000
C       -0.17550000       0.24730000      -0.38250000
C        1.05950000      -1.49830000      -1.85960000
C        2.34700000      -2.34070000      -1.73430000
C        2.74880000      -2.26220000      -0.23160000
C        1.72660000      -1.30530000       0.42910000
H        0.23890000       1.26180000       1.50130000
H       -0.47240000       2.31950000       0.29710000
H        1.71030000       2.84410000      -0.51380000
H        2.36220000       1.87910000       0.79300000
H        1.85470000       1.08150000      -2.08430000
H        3.12890000       0.50330000      -1.01810000
H       -0.87170000      -0.40600000       0.15390000
H       -0.67290000       0.55170000      -1.31250000
H        0.17840000      -2.13150000      -1.69380000
H        0.94260000      -1.03900000      -2.84670000
H        2.19810000      -3.36980000      -2.07270000
H        3.13850000      -1.91810000      -2.36130000
H        2.73970000      -3.24480000       0.24840000
H        3.76840000      -1.87910000      -0.12680000
H        2.17280000      -0.70080000       1.22480000
H        0.91450000      -1.88290000       0.88730000
