12
Properties=species:S:1:pos:R:3 gdb_24899=T pbc="F F F"
O       -0.11660000      -0.02900000       0.00480000
C        0.01460000       1.15850000       0.00920000
O       -1.17160000       1.94910000       0.02980000
C       -1.11690000       3.29320000       0.03590000
N       -0.04010000       4.00640000       0.02450000
C        1.14230000       3.30560000       0.00440000
C        1.22050000       1.95350000      -0.00360000
C       -2.40510000       3.90060000       0.05710000
C       -3.49610000       4.40420000       0.07490000
H        2.03910000       3.91780000      -0.00500000
H        2.16250000       1.42170000      -0.01960000
H       -4.45860000       4.85510000       0.09070000
