22
Properties=species:S:1:pos:R:3 gdb_102992=T pbc="F F F"
C        2.75670000       0.64210000       0.83910000
C        1.60350000      -0.31430000       0.51250000
C        1.56910000      -0.74230000      -0.95390000
C        1.41770000       0.36550000      -1.86690000
N        1.29350000       1.25810000      -2.59400000
C        2.40010000      -1.92070000      -1.48410000
C        3.35820000      -2.69520000      -0.60480000
C        0.90160000      -2.04970000      -1.40330000
C        0.18310000      -2.96410000      -0.43420000
H        3.72750000       0.17210000       0.65290000
H        2.70150000       1.54850000       0.22910000
H        2.72240000       0.94060000       1.89100000
H        1.66970000      -1.19970000       1.14870000
H        0.64780000       0.16520000       0.75540000
H        2.78180000      -1.76410000      -2.48910000
H        2.99640000      -2.82300000       0.41710000
H        3.52430000      -3.69480000      -1.02080000
H        4.32980000      -2.19370000      -0.55270000
H        0.39290000      -1.96630000      -2.35960000
H        0.71350000      -3.09280000       0.51110000
H       -0.81730000      -2.58200000      -0.20580000
H        0.06330000      -3.95770000      -0.87910000
