20
Properties=species:S:1:pos:R:3 gdb_64045=T pbc="F F F"
C        0.09070000       1.56530000       0.00510000
C        0.02170000       0.04130000      -0.02700000
O       -1.37040000      -0.29300000       0.02720000
C        0.65100000      -0.51440000      -1.32660000
C        0.78430000      -2.01630000      -1.30700000
C        1.02570000      -2.68740000      -0.17820000
C        1.16340000      -1.97730000       1.11810000
N        2.11900000      -0.83120000       1.15440000
C        0.67840000      -0.56930000       1.20420000
H        1.13160000       1.89810000       0.04280000
H       -0.38470000       1.98910000      -0.88440000
H       -0.43420000       1.94890000       0.88500000
H       -1.42870000      -1.25320000      -0.04490000
H        0.02430000      -0.19120000      -2.16400000
H        1.63940000      -0.06220000      -1.46850000
H        0.69740000      -2.54860000      -2.25020000
H        1.12580000      -3.76880000      -0.17920000
H        1.10080000      -2.58650000       2.01530000
H        2.51840000      -0.75310000       2.08660000
H        0.23740000      -0.24350000       2.14420000
