21
Properties=species:S:1:pos:R:3 gdb_100146=T pbc="F F F"
C       -0.10790000       1.61320000       0.15420000
C        0.03860000       0.08790000       0.09240000
C        0.78380000      -0.45680000       1.31700000
C       -1.34600000      -0.57100000      -0.01880000
O       -2.09760000      -0.24450000       1.13880000
O        0.66160000      -0.33200000      -1.13310000
C        1.97560000       0.09200000      -1.38490000
C        2.39090000      -0.48420000      -2.72880000
O        3.46840000      -0.30120000      -3.22930000
H        0.85040000       2.11190000       0.32600000
H       -0.53500000       1.99070000      -0.78020000
H       -0.77970000       1.87980000       0.97300000
H        0.16700000      -0.31810000       2.20760000
H        0.98020000      -1.52670000       1.19570000
H        1.73590000       0.05610000       1.48090000
H       -1.83040000      -0.20540000      -0.93580000
H       -1.20520000      -1.65680000      -0.12050000
H       -2.96180000      -0.65790000       1.06400000
H        2.07120000       1.18740000      -1.43900000
H        2.69320000      -0.25810000      -0.62710000
H        1.59880000      -1.09740000      -3.21280000
