19
Properties=species:S:1:pos:R:3 gdb_79843=T pbc="F F F"
O       -0.00630000       1.42780000       0.13900000
C       -0.00800000       0.02620000      -0.04570000
C       -1.37350000      -0.63070000      -0.04190000
C       -2.08320000      -0.46390000      -1.39450000
C       -1.67490000       0.68330000      -2.31600000
C       -0.16030000       0.43520000      -2.57310000
C        0.25310000      -0.56180000      -1.48190000
C       -0.98780000      -1.47440000      -1.23940000
O       -1.06430000      -2.84670000      -1.35740000
H        0.90750000       1.72610000       0.18800000
H        0.64540000      -0.46560000       0.68760000
H       -1.93980000      -0.91410000       0.83750000
H       -3.10690000      -0.82300000      -1.38690000
H       -2.25230000       0.66350000      -3.24630000
H       -1.84000000       1.65440000      -1.84340000
H        0.00350000      -0.00630000      -3.56300000
H        0.41990000       1.36080000      -2.52360000
H        1.21920000      -1.04590000      -1.62910000
H       -1.24240000      -3.06300000      -2.27930000
