20
Properties=species:S:1:pos:R:3 gdb_118600=T pbc="F F F"
C       -0.02020000       1.61840000       0.00300000
C        0.01050000       0.08800000       0.01810000
C        0.67080000      -0.49480000      -1.23530000
C        0.71320000      -2.02760000      -1.23880000
O       -0.65190000      -2.48360000      -1.23290000
C       -0.85110000      -3.79140000      -0.96240000
N       -2.02490000      -4.25210000      -0.93690000
C        1.44550000      -2.55810000      -2.39030000
C        2.04930000      -2.98740000      -3.33630000
H        0.99050000       2.03760000      -0.05500000
H       -0.58400000       1.99400000      -0.85790000
H       -0.49330000       2.01260000       0.90730000
H        0.55310000      -0.26010000       0.90760000
H       -1.00700000      -0.30640000       0.10170000
H        0.13810000      -0.16970000      -2.13600000
H        1.70170000      -0.13430000      -1.32770000
H        1.20200000      -2.37320000      -0.31540000
H        0.07590000      -4.35070000      -0.78140000
H       -2.00230000      -5.24470000      -0.71230000
H        2.58010000      -3.36960000      -4.17350000
