22
Properties=species:S:1:pos:R:3 gdb_119952=T pbc="F F F"
C       -1.94290000       1.30860000       1.97340000
C       -1.80910000      -0.19600000       1.72660000
C       -1.97530000      -0.57370000       0.24810000
C       -1.74560000      -2.05120000       0.01050000
C       -2.86570000      -3.08980000       0.04760000
C       -4.26600000      -2.68060000       0.31070000
O       -4.83300000      -1.69980000      -0.12240000
N       -2.12250000      -2.76080000      -1.18200000
C       -2.77840000      -2.08420000      -2.29930000
H       -1.82170000       1.54970000       3.03390000
H       -1.18540000       1.87020000       1.41530000
H       -2.92560000       1.67510000       1.65770000
H       -0.83030000      -0.54130000       2.08540000
H       -2.55830000      -0.73460000       2.32050000
H       -2.96850000      -0.27800000      -0.09690000
H       -1.24410000      -0.01530000      -0.35320000
H       -0.80750000      -2.41460000       0.43510000
H       -2.62960000      -4.07350000       0.44980000
H       -4.80490000      -3.38840000       0.98050000
H       -3.56310000      -1.37680000      -2.01770000
H       -2.00540000      -1.56360000      -2.87300000
H       -3.21950000      -2.84860000      -2.94580000
