15
Properties=species:S:1:pos:R:3 gdb_4846=T pbc="F F F"
C        0.47390000       1.01780000      -0.52650000
N       -0.35190000       0.15290000       0.32670000
C        0.33020000      -0.53970000       1.33770000
C        0.58060000      -0.31740000       2.66220000
N        1.28000000      -1.38070000       3.22280000
C        1.45310000      -2.21380000       2.23560000
O        2.09450000      -3.39620000       2.27920000
N        0.91330000      -1.78250000       1.06830000
H        1.21880000       0.40950000      -1.04790000
H       -0.16270000       1.48790000      -1.28180000
H        1.00870000       1.80290000       0.02900000
H       -1.12130000       0.67720000       0.72310000
H        0.29460000       0.53820000       3.25480000
H        2.39890000      -3.49800000       3.18990000
H        0.85150000      -2.29190000       0.20320000
