20
Properties=species:S:1:pos:R:3 gdb_38933=T pbc="F F F"
C        0.34790000       1.51570000       0.57290000
C        1.60020000       1.44680000      -0.32190000
O        2.74800000       0.95140000       0.39570000
C        2.45490000      -0.42920000       0.02710000
C        2.23070000      -1.36900000       1.22230000
C        0.82340000      -1.98410000       1.16600000
C       -0.26710000      -0.90260000       1.15900000
N       -0.01440000       0.13570000       0.15530000
C        1.17310000       0.01660000      -0.71150000
H        0.59210000       1.63900000       1.63630000
H       -0.41020000       2.25720000       0.29010000
H        1.83990000       2.26520000      -1.00280000
H        3.23940000      -0.80150000      -0.64460000
H        2.98920000      -2.15730000       1.24660000
H        2.35020000      -0.78110000       2.13910000
H        0.73340000      -2.59910000       0.26050000
H        0.66030000      -2.65820000       2.01320000
H       -1.24840000      -1.36860000       0.99230000
H       -0.31090000      -0.42940000       2.15020000
H        0.99250000      -0.35970000      -1.72090000
