15
Properties=species:S:1:pos:R:3 gdb_17932=T pbc="F F F"
C        0.02800000       1.62920000      -0.12690000
C        0.05350000       0.13410000      -0.09290000
C        0.74960000      -0.92550000      -0.88130000
C        1.78580000      -1.54010000       0.09340000
N        1.01970000      -1.61480000       1.39180000
C        0.03550000      -0.86540000       1.12240000
O       -1.23900000      -1.38160000       0.84190000
C       -0.83550000      -0.93390000      -0.53530000
H        0.95280000       2.04830000       0.28260000
H       -0.07500000       1.98860000      -1.15600000
H       -0.81030000       2.02460000       0.45580000
H        0.97910000      -0.79290000      -1.93760000
H        2.04650000      -2.57750000      -0.13630000
H        2.71420000      -0.94960000       0.11940000
H       -1.62270000      -0.99600000      -1.27790000
