18
Properties=species:S:1:pos:R:3 gdb_96537=T pbc="F F F"
O        0.00190000       1.36530000       0.19860000
C       -0.01390000      -0.02050000      -0.01820000
C       -1.46800000      -0.54320000       0.00080000
C       -1.55160000      -2.06350000      -0.23500000
O       -0.31040000      -2.68210000       0.12140000
C        0.60030000      -2.78320000      -0.91770000
O        0.70540000      -1.63750000      -1.77640000
C        0.68060000      -0.35370000      -1.33180000
N        1.13790000       0.59860000      -2.03060000
H        0.43610000       1.74220000      -0.58530000
H        0.53390000      -0.52270000       0.79090000
H       -1.88200000      -0.27710000       0.97730000
H       -2.04880000      -0.00180000      -0.75260000
H       -2.31310000      -2.52440000       0.39880000
H       -1.79660000      -2.29400000      -1.27900000
H        1.57330000      -2.99000000      -0.45820000
H        0.33460000      -3.58280000      -1.62280000
H        1.56510000       0.26840000      -2.89500000
