17
Properties=species:S:1:pos:R:3 gdb_26301=T pbc="F F F"
C        0.39680000       0.94350000       0.84940000
C       -0.26820000      -0.01700000      -0.13470000
O       -1.51810000       0.48700000      -0.61810000
C        0.61910000      -0.38450000      -1.28270000
C        1.93170000      -0.17650000      -1.53030000
N        2.22650000      -0.76780000      -2.75580000
C        1.09370000      -1.34390000      -3.32570000
O        0.99170000      -1.90660000      -4.39680000
N        0.11710000      -1.10890000      -2.36600000
H        1.28500000       0.49230000       1.30240000
H        0.70140000       1.86750000       0.34600000
H       -0.30810000       1.19630000       1.64450000
H       -0.55780000      -0.92980000       0.40330000
H       -1.32980000       1.28740000      -1.12270000
H        2.68280000       0.31200000      -0.93450000
H        3.11310000      -0.76720000      -3.22740000
H       -0.85620000      -1.30960000      -2.51730000
