17
Properties=species:S:1:pos:R:3 gdb_3272=T pbc="F F F"
C        0.01970000       1.47530000       0.21420000
C        1.38830000       2.10590000      -0.06790000
O        2.34610000       2.02920000       0.97170000
C        2.47670000       0.82590000       1.71220000
C        2.11920000      -0.48470000       1.01170000
O        0.73200000      -0.76460000       1.00880000
C       -0.01480000      -0.04680000       0.04720000
H       -0.32610000       1.75640000       1.21570000
H       -0.69470000       1.90070000      -0.50270000
H        1.79150000       1.67110000      -0.99890000
H        1.26760000       3.17910000      -0.24850000
H        3.52990000       0.78300000       2.01610000
H        1.86980000       0.87700000       2.62970000
H        2.53350000      -0.51200000      -0.00930000
H        2.58250000      -1.29950000       1.57870000
H       -1.04130000      -0.41370000       0.14500000
H        0.33450000      -0.30210000      -0.96930000
