15
Properties=species:S:1:pos:R:3 gdb_79517=T pbc="F F F"
O        0.06000000       1.41640000       0.10970000
C        0.00920000       0.00660000       0.05000000
C       -1.39530000      -0.51060000      -0.18540000
C       -1.31810000      -1.93790000      -0.80460000
O       -2.53620000      -1.69620000      -1.58730000
C       -1.74190000      -0.47000000      -1.70370000
C       -0.42030000      -1.29930000      -1.91580000
C        0.67180000      -0.51870000      -1.24640000
O        1.77900000      -0.23780000      -1.62810000
H        0.96440000       1.67110000      -0.11360000
H        0.47620000      -0.45460000       0.93580000
H       -2.19090000      -0.30310000       0.52620000
H       -1.20090000      -2.90660000      -0.31910000
H       -2.12760000       0.34390000      -2.31530000
H       -0.25070000      -1.81750000      -2.85530000
