21
Properties=species:S:1:pos:R:3 gdb_112182=T pbc="F F F"
C       -0.08980000       1.63280000      -0.10910000
C       -0.05670000       0.16100000       0.31710000
C       -1.35510000      -0.55630000       0.00640000
O       -1.58350000      -0.66670000      -1.44840000
C       -1.68050000      -2.03100000      -1.38300000
O       -1.86780000      -2.79150000      -2.27930000
C       -1.47820000      -2.10510000       0.13720000
C       -0.24250000      -2.89760000       0.56400000
C       -2.73080000      -2.58110000       0.87800000
H        0.86080000       2.12600000       0.11300000
H       -0.27600000       1.71850000      -1.18330000
H       -0.88180000       2.17960000       0.41420000
H        0.77230000      -0.35080000      -0.18300000
H        0.12640000       0.08310000       1.39660000
H       -2.20400000      -0.02430000       0.45000000
H        0.65610000      -2.59890000       0.01890000
H       -0.05210000      -2.77280000       1.63520000
H       -0.40600000      -3.96210000       0.37190000
H       -2.91460000      -3.63980000       0.67250000
H       -2.60590000      -2.46060000       1.95950000
H       -3.61890000      -2.01980000       0.57190000
