23
Properties=species:S:1:pos:R:3 gdb_123060=T pbc="F F F"
O       -0.08060000       1.47170000       0.06490000
C        0.01730000       0.05580000       0.09530000
C       -1.38920000      -0.51560000      -0.02410000
C       -1.41850000      -2.04640000      -0.00190000
C       -2.83390000      -2.62350000      -0.12620000
C       -2.86820000      -4.14630000      -0.09480000
C       -2.63420000      -4.84420000       1.26690000
O       -3.92230000      -5.48870000       1.21390000
C       -4.25250000      -4.83100000      -0.02610000
H        0.80600000       1.83670000       0.13700000
H        0.64220000      -0.31860000      -0.73260000
H        0.48120000      -0.29180000       1.03340000
H       -1.99700000      -0.11410000       0.79610000
H       -1.83710000      -0.14320000      -0.95370000
H       -0.79670000      -2.43880000      -0.81870000
H       -0.95930000      -2.40820000       0.92880000
H       -3.46230000      -2.23210000       0.68590000
H       -3.28930000      -2.27100000      -1.06170000
H       -2.23590000      -4.55320000      -0.88980000
H       -1.81380000      -5.57070000       1.31350000
H       -2.55170000      -4.16260000       2.12550000
H       -5.10210000      -4.14330000       0.08700000
H       -4.48280000      -5.54890000      -0.82290000
