22
Properties=species:S:1:pos:R:3 gdb_22129=T pbc="F F F"
C        0.18260000       1.36200000       0.35540000
C        0.04300000      -0.10040000      -0.08120000
C        0.64740000      -0.43140000      -1.45040000
C       -0.00530000       0.34550000      -2.59360000
C        2.22320000      -0.37530000      -1.50520000
C        2.20700000      -1.82310000      -1.93960000
C        0.71480000      -1.97420000      -1.75020000
N        3.15050000      -2.55730000      -2.35670000
O        2.67560000      -3.84420000      -2.68390000
H        1.23060000       1.68180000       0.35280000
H       -0.37300000       2.03890000      -0.30040000
H       -0.20130000       1.50080000       1.37070000
H        0.51820000      -0.74400000       0.67090000
H       -1.01940000      -0.38000000      -0.08990000
H        0.14490000       1.42470000      -2.48910000
H        0.41720000       0.04730000      -3.55930000
H       -1.08450000       0.15640000      -2.62980000
H        2.65880000       0.33340000      -2.21540000
H        2.69410000      -0.21730000      -0.52890000
H        0.44470000      -2.61220000      -0.90150000
H        0.16490000      -2.32620000      -2.62810000
H        3.47700000      -4.28180000      -2.98990000
