19
Properties=species:S:1:pos:R:3 gdb_90005=T pbc="F F F"
C       -0.41560000       1.42880000       0.09520000
C       -0.10000000      -0.06350000       0.05010000
C        1.04700000      -0.44650000      -0.93490000
C        2.01640000      -0.50740000       0.26880000
C        0.79960000      -0.56400000       1.22180000
O        3.03930000      -1.52320000       0.33080000
C        4.11840000      -0.58160000       0.50580000
C        3.09600000       0.55920000       0.45070000
O        3.12060000       1.75160000       0.51860000
H        0.49510000       2.02200000       0.23210000
H       -0.89440000       1.75530000      -0.83440000
H       -1.09620000       1.65960000       0.92190000
H       -1.01940000      -0.63780000      -0.08660000
H        0.92580000      -1.44800000      -1.35630000
H        1.28720000       0.25760000      -1.73600000
H        0.84390000       0.04710000       2.12720000
H        0.59860000      -1.60330000       1.49500000
H        4.64220000      -0.69890000       1.46250000
H        4.84610000      -0.60210000      -0.31480000
