25
Properties=species:S:1:pos:R:3 gdb_103624=T pbc="F F F"
C        0.81800000       1.54250000      -0.25990000
C        0.09790000       0.21250000      -0.04930000
C        0.55660000      -0.94850000      -0.98030000
C        1.22590000      -1.67480000       0.22680000
C        0.82120000      -3.13540000       0.42530000
C        2.75470000      -1.54140000       0.20400000
O        3.35730000      -2.19250000      -0.90690000
C        0.51290000      -0.65520000       1.18930000
C        1.26070000      -0.01880000       2.35710000
H        1.90680000       1.43070000      -0.27810000
H        0.52350000       1.98320000      -1.21890000
H        0.57140000       2.26460000       0.52620000
H       -0.98020000       0.39970000      -0.08440000
H       -0.27550000      -1.51310000      -1.41030000
H        1.23910000      -0.67820000      -1.79080000
H        1.18600000      -3.77120000      -0.39110000
H        1.21320000      -3.53700000       1.36840000
H       -0.26810000      -3.24170000       0.44560000
H        3.04810000      -0.49250000       0.10840000
H        3.17610000      -1.90970000       1.15340000
H        3.23540000      -3.14010000      -0.79870000
H       -0.38420000      -1.14090000       1.59030000
H        2.16500000       0.51080000       2.04480000
H        0.62040000       0.70640000       2.87170000
H        1.55630000      -0.77200000       3.09630000
