16
Properties=species:S:1:pos:R:3 gdb_48719=T pbc="F F F"
O        0.15020000       0.10480000      -0.78190000
C        0.31860000       0.87060000       0.13140000
C        1.37250000       1.93010000       0.15800000
C        1.69190000       2.70590000       1.43410000
C        2.10760000       4.10580000       0.97400000
N        3.34350000       4.15040000       0.17870000
C        2.03980000       4.17520000      -0.51480000
C        1.59850000       2.82050000      -1.02370000
O        2.47010000       1.74720000      -0.73750000
H       -0.33630000       0.85790000       1.03270000
H        0.79190000       2.76880000       2.05670000
H        2.47580000       2.21710000       2.02010000
H        1.85860000       4.95740000       1.59970000
H        3.72180000       5.09490000       0.20260000
H        1.72220000       5.06380000      -1.04820000
H        1.01080000       2.72630000      -1.93280000
