14
Properties=species:S:1:pos:R:3 gdb_127540=T pbc="F F F"
C        0.00150000       1.41190000       0.01150000
N       -0.04470000      -0.03440000      -0.00450000
N       -0.00910000      -0.71300000      -1.17600000
C        0.03020000      -1.96080000      -0.72860000
N        0.05560000      -3.27180000      -1.13460000
C        0.06620000      -4.00540000       0.04830000
N        0.04390000      -3.29300000       1.14760000
C        0.02200000      -1.99790000       0.67130000
N       -0.02150000      -0.74310000       1.13040000
H        1.03500000       1.77060000      -0.03530000
H       -0.54990000       1.78610000      -0.85140000
H       -0.45970000       1.75460000       0.93730000
H        0.07330000      -3.64340000      -2.06820000
H        0.09280000      -5.08570000       0.01660000
