21
Properties=species:S:1:pos:R:3 gdb_114311=T pbc="F F F"
C        0.45020000       1.73360000      -0.60620000
C        0.47160000       0.23600000      -0.38250000
C        1.71870000      -0.58950000      -0.36940000
O        2.79840000       0.11060000       0.26590000
C        2.10120000       0.03010000       1.54710000
C        2.13550000       1.33580000       2.32070000
O        3.47730000       1.72660000       2.55990000
C        0.84930000      -0.54370000       0.87770000
C       -0.04820000      -1.56670000       1.51350000
H        1.42490000       2.17500000      -0.39100000
H        0.21370000       1.95040000      -1.65350000
H       -0.30340000       2.23180000       0.01290000
H       -0.33910000      -0.29200000      -0.88470000
H        1.98090000      -1.38470000      -1.05930000
H        2.59440000      -0.74460000       2.15180000
H        1.57390000       2.12170000       1.80080000
H        1.66940000       1.18670000       3.30170000
H        3.91300000       1.73910000       1.69950000
H       -0.74540000      -1.10420000       2.22260000
H       -0.64840000      -2.08820000       0.76120000
H        0.53080000      -2.32030000       2.05960000
