17
Properties=species:S:1:pos:R:3 gdb_84911=T pbc="F F F"
O        0.17300000       1.28550000      -0.18240000
C       -0.10640000      -0.11000000      -0.07460000
C        0.73380000      -0.75630000       0.99930000
C        0.21240000      -1.07850000       2.18180000
C       -1.23210000      -0.82330000       2.51190000
O       -1.86850000       0.02870000       1.57470000
C       -1.59360000      -0.35350000       0.23510000
C       -2.48780000       0.48270000      -0.66980000
O       -2.63610000       0.25070000      -1.83930000
H        0.02910000       1.65920000       0.69530000
H        0.11910000      -0.52680000      -1.06090000
H        1.78700000      -0.90960000       0.78450000
H        0.81310000      -1.54460000       2.95860000
H       -1.77710000      -1.78230000       2.58770000
H       -1.32370000      -0.32980000       3.48600000
H       -1.83450000      -1.41630000       0.06880000
H       -2.99580000       1.32470000      -0.15250000
