14
Properties=species:S:1:pos:R:3 gdb_128565=T pbc="F F F"
C        0.01840000       1.42410000      -0.04960000
O        0.00440000      -0.00980000      -0.00480000
C        0.57740000      -0.65490000      -1.00890000
C        0.71330000      -1.99310000      -1.23080000
C        1.41380000      -2.03580000      -2.46830000
N        1.67630000      -0.82990000      -2.94980000
O        1.13300000       0.05300000      -2.00120000
C        1.82500000      -3.19320000      -3.17930000
C        2.15840000      -4.19450000      -3.75500000
H        1.04430000       1.80250000      -0.05650000
H       -0.50880000       1.79030000      -0.93480000
H       -0.49580000       1.74620000       0.85510000
H        0.37440000      -2.80990000      -0.62020000
H        2.45850000      -5.07150000      -4.27340000
