19
Properties=species:S:1:pos:R:3 gdb_51112=T pbc="F F F"
O        0.32830000      -0.24550000      -0.09490000
C        0.13670000       0.93780000      -0.20660000
C        1.19430000       2.00780000      -0.01290000
C        1.22250000       2.98050000      -1.16480000
C        1.95450000       2.70950000      -2.45480000
C        2.34390000       3.90110000      -1.61830000
C        1.34630000       5.09030000      -1.69570000
C        0.16980000       4.85400000      -2.60240000
C        0.21670000       4.17290000      -1.26110000
H       -0.87050000       1.33080000      -0.47890000
H        0.96060000       2.54520000       0.91940000
H        2.16150000       1.51390000       0.12060000
H        2.65720000       1.88300000      -2.39270000
H        1.49170000       2.79940000      -3.43100000
H        3.33460000       3.99880000      -1.19230000
H        1.59060000       6.07410000      -1.31690000
H       -0.52600000       5.68720000      -2.64520000
H        0.24610000       4.31550000      -3.54010000
H       -0.53410000       4.34950000      -0.50070000
