15
Properties=species:S:1:pos:R:3 gdb_95618=T pbc="F F F"
O       -0.05340000       1.40840000       0.02360000
C       -0.01290000      -0.01490000       0.02270000
C       -1.45560000      -0.50850000      -0.02930000
O       -2.09640000      -0.10440000      -1.22220000
C       -1.56440000      -0.71930000      -2.37430000
C       -0.06180000      -0.50230000      -2.54930000
O        0.47780000      -0.46800000      -3.62320000
C        0.76400000      -0.42080000      -1.23220000
O        1.95050000      -0.62700000      -1.23490000
H        0.85370000       1.72980000       0.08440000
H        0.49930000      -0.41390000       0.90960000
H       -1.47350000      -1.60600000       0.08160000
H       -2.02060000      -0.06400000       0.79390000
H       -1.73100000      -1.81340000      -2.35530000
H       -2.08830000      -0.31550000      -3.24350000
