19
Properties=species:S:1:pos:R:3 gdb_70907=T pbc="F F F"
C        0.01830000       1.49480000       0.09900000
C       -0.04310000      -0.00860000      -0.00460000
C        0.28740000      -0.68470000      -1.38610000
C       -0.89820000      -1.61420000      -1.12960000
O       -1.67400000      -2.21220000      -2.10520000
C       -0.87050000      -2.12770000       0.30530000
C        0.41460000      -1.97630000       1.10910000
O        0.74260000      -0.58740000       1.03920000
C       -1.40700000      -0.75230000       0.00230000
H        1.04890000       1.84340000      -0.01840000
H       -0.59550000       1.96030000      -0.67690000
H       -0.34410000       1.82300000       1.07790000
H        0.07740000      -0.01380000      -2.22400000
H        1.29150000      -1.10950000      -1.49350000
H       -1.23660000      -3.02360000      -2.38650000
H       -1.57070000      -2.92290000       0.53300000
H        0.27160000      -2.25160000       2.16110000
H        1.23980000      -2.58300000       0.70900000
H       -2.39090000      -0.37510000       0.24580000
