20
Properties=species:S:1:pos:R:3 gdb_66132=T pbc="F F F"
C        0.07020000       1.61700000       0.20130000
C        0.03780000       0.08230000       0.08290000
C        0.71580000      -0.47750000      -1.18500000
C        1.26140000      -1.85450000      -0.74060000
N        1.48290000      -1.81950000       0.72180000
C        2.26740000      -0.65710000       1.16080000
C        0.78330000      -0.62270000       1.22140000
C       -1.42670000      -0.34690000       0.16460000
O       -2.05120000      -0.88430000      -0.71190000
H        1.10430000       1.96980000       0.24780000
H       -0.41780000       2.08950000      -0.65710000
H       -0.44050000       1.95950000       1.10820000
H       -0.00150000      -0.56910000      -2.00250000
H        1.51510000       0.19200000      -1.51390000
H        0.51920000      -2.63530000      -0.93230000
H        2.18550000      -2.13720000      -1.25360000
H        2.83700000      -0.81400000       2.07220000
H        2.77430000      -0.05040000       0.41430000
H        0.28010000      -0.71390000       2.18180000
H       -1.90950000      -0.10170000       1.14030000
