16
Properties=species:S:1:pos:R:3 gdb_112386=T pbc="F F F"
C        0.12630000       1.32300000      -0.04160000
O       -0.01760000      -0.08840000       0.07520000
C       -1.32590000      -0.53400000      -0.00950000
O       -1.85700000      -0.40640000      -1.32960000
C       -1.78440000      -1.59210000      -2.03450000
N       -2.09840000      -1.71220000      -3.24640000
C       -1.32440000      -2.70380000      -1.12400000
C       -1.30110000      -2.05710000       0.24860000
O       -1.28360000      -2.57620000       1.32740000
H        1.18630000       1.54140000       0.09640000
H       -0.19550000       1.67530000      -1.02770000
H       -0.45500000       1.84080000       0.73400000
H       -1.99460000       0.01260000       0.66780000
H       -2.38860000      -0.81300000      -3.63530000
H       -1.97260000      -3.57990000      -1.17240000
H       -0.31050000      -3.02660000      -1.38720000
