15
Properties=species:S:1:pos:R:3 gdb_21291=T pbc="F F F"
C       -0.06930000       1.41940000      -0.03150000
O       -0.01580000      -0.00500000      -0.02520000
C       -1.20060000      -0.63120000       0.00630000
N       -2.38000000      -0.02130000       0.03010000
N       -3.23090000      -1.05280000       0.05620000
N       -2.69170000      -2.26340000       0.05110000
C       -1.37870000      -2.03510000       0.01900000
C       -0.35350000      -3.11760000       0.00140000
H        0.96660000       1.75950000      -0.05760000
H       -0.60980000       1.78660000      -0.91040000
H       -0.56820000       1.79610000       0.86770000
H       -4.22610000      -0.91340000       0.07900000
H        0.26760000      -3.06330000      -0.89910000
H        0.32050000      -3.04110000       0.86130000
H       -0.84210000      -4.09350000       0.02810000
