19
Properties=species:S:1:pos:R:3 gdb_99546=T pbc="F F F"
C        0.91440000      -0.86030000       0.92720000
N        0.10730000      -0.25070000      -0.12880000
C       -1.29970000      -0.65790000      -0.10690000
C       -2.03650000      -0.12630000       1.04800000
C       -2.58780000       0.36180000       1.99860000
C       -1.96980000      -0.23910000      -1.45370000
C       -1.27180000      -0.87590000      -2.66940000
C       -3.39630000      -0.57660000      -1.45080000
N       -4.51480000      -0.86560000      -1.48100000
H        1.93380000      -0.47060000       0.86360000
H        0.53210000      -0.67910000       1.94350000
H        0.96010000      -1.94300000       0.76800000
H        0.14880000       0.76040000      -0.03550000
H       -1.31620000      -1.75470000      -0.06270000
H       -3.09740000       0.77260000       2.83540000
H       -1.89670000       0.85380000      -1.52550000
H       -1.38300000      -1.96400000      -2.65010000
H       -1.70940000      -0.50580000      -3.59930000
H       -0.20960000      -0.63210000      -2.64110000
