19
Properties=species:S:1:pos:R:3 gdb_75614=T pbc="F F F"
C       -0.83930000       1.18080000      -0.09610000
C        0.02160000      -0.07020000      -0.05320000
C        1.39760000      -0.05710000      -0.71530000
O        1.94000000       0.66380000      -1.51080000
C        1.99440000      -0.98450000       0.33510000
O        3.31650000      -0.75520000       0.72060000
C        0.77670000      -0.53070000       1.24490000
C        1.15280000       0.58460000       2.20960000
O        0.07040000      -1.57540000       1.87890000
H       -0.28360000       2.06300000       0.23310000
H       -1.18140000       1.37020000      -1.11770000
H       -1.72140000       1.06970000       0.54150000
H       -0.53960000      -0.94440000      -0.40530000
H        1.83360000      -2.04270000       0.08620000
H        3.66000000      -0.06180000       0.14190000
H        1.65020000       1.41390000       1.69780000
H        0.26320000       0.96970000       2.71530000
H        1.85470000       0.20900000       2.96150000
H        0.57150000      -1.85030000       2.65500000
