19
Properties=species:S:1:pos:R:3 gdb_92301=T pbc="F F F"
C       -0.05530000       1.60120000      -0.06560000
C        0.04330000       0.08640000       0.01520000
C        0.99670000      -0.67220000      -0.95520000
C        1.46140000      -1.57920000       0.22180000
C        2.94440000      -1.54140000       0.58780000
O        3.14240000      -0.31950000       1.32080000
C        1.96290000       0.20930000       1.75920000
O        1.92720000       1.17890000       2.46150000
C        0.79180000      -0.59400000       1.20950000
H        0.92990000       2.07380000      -0.01610000
H       -0.52850000       1.90110000      -1.00710000
H       -0.65290000       2.00500000       0.75760000
H       -0.95890000      -0.35100000      -0.04170000
H        0.53550000      -1.17310000      -1.80880000
H        1.80520000      -0.03280000      -1.32500000
H        1.05990000      -2.59230000       0.19240000
H        3.23620000      -2.37970000       1.23130000
H        3.60810000      -1.51980000      -0.28150000
H        0.17890000      -0.95850000       2.03600000
