21
Properties=species:S:1:pos:R:3 gdb_39378=T pbc="F F F"
C       -0.05930000       1.51600000       0.19790000
C        1.29120000       0.83800000       0.13060000
C        2.12390000       0.57660000       1.36600000
C        3.16210000      -0.54360000       1.13180000
C        2.66980000      -1.79710000       0.44400000
C        1.46230000      -2.36320000       0.49680000
C        0.30020000      -1.91200000       1.34380000
O       -0.48460000      -0.79920000       0.87170000
C        0.02980000       0.04540000      -0.10880000
H       -0.44570000       1.76540000       1.18040000
H       -0.34200000       2.20390000      -0.59120000
H        1.87660000       1.04410000      -0.76350000
H        2.66150000       1.48630000       1.66100000
H        1.46440000       0.33300000       2.20340000
H        3.97540000      -0.13510000       0.51840000
H        3.63570000      -0.80940000       2.08820000
H        3.41330000      -2.28040000      -0.18840000
H        1.29250000      -3.25190000      -0.10650000
H       -0.41000000      -2.73860000       1.45050000
H        0.65510000      -1.66730000       2.35390000
H       -0.16890000      -0.27910000      -1.13000000
