20
Properties=species:S:1:pos:R:3 gdb_62910=T pbc="F F F"
C       -0.06240000       1.57600000       0.13610000
C        0.02230000       0.05830000      -0.04180000
C       -1.37430000      -0.50640000       0.25170000
C        0.86560000      -0.57760000      -1.19380000
C        2.10100000      -0.06490000      -0.42620000
N        1.22520000      -0.62360000       0.72100000
C        1.03810000      -1.80020000      -0.24940000
C        0.05130000      -2.90340000       0.04410000
O       -0.23770000      -3.29870000       1.14300000
H        0.88230000       2.11250000       0.06650000
H       -0.73890000       1.99360000      -0.61730000
H       -0.49280000       1.79530000       1.11890000
H       -1.63030000      -1.38980000      -0.33690000
H       -1.46690000      -0.77000000       1.30900000
H       -2.13320000       0.24660000       0.02270000
H        0.67020000      -0.56760000      -2.27330000
H        3.03680000      -0.61470000      -0.54860000
H        2.29500000       1.00230000      -0.37540000
H        1.98330000      -2.34170000      -0.41270000
H       -0.31990000      -3.42010000      -0.87480000
