16
Properties=species:S:1:pos:R:3 gdb_96969=T pbc="F F F"
C       -0.09600000       1.39450000      -0.03600000
N       -0.04630000      -0.05920000      -0.09890000
C       -1.10460000      -0.72310000      -0.01810000
O       -2.40320000      -0.22690000       0.13890000
C       -3.20910000      -1.43110000       0.14940000
C       -2.38420000      -2.37720000       1.05670000
C       -1.30400000      -2.21650000      -0.08230000
C       -2.56240000      -2.23420000      -1.01250000
O       -2.89520000      -2.76700000      -2.01980000
H        0.59270000       1.73760000       0.74330000
H        0.26870000       1.80320000      -0.98500000
H       -1.09180000       1.80520000       0.16310000
H       -4.26160000      -1.19210000       0.26800000
H       -2.11370000      -1.97120000       2.03270000
H       -2.79140000      -3.38670000       1.13270000
H       -0.43030000      -2.84550000      -0.20910000
