19
Properties=species:S:1:pos:R:3 gdb_73159=T pbc="F F F"
O        0.08410000       1.53400000      -0.01350000
C        0.05030000       0.14860000       0.07050000
C       -1.36200000      -0.46570000      -0.02990000
C       -1.04870000      -1.39360000       1.18880000
C        0.35880000      -0.76670000       1.31110000
O        1.35850000      -1.49090000       0.55390000
C        1.16020000      -0.66280000      -0.59370000
C        1.32630000      -1.16000000      -1.98640000
C        2.30720000      -0.14630000      -1.40630000
H        1.00380000       1.81540000       0.05660000
H       -2.12750000       0.28150000       0.18930000
H       -1.60160000      -0.95260000      -0.97790000
H       -1.69100000      -1.20770000       2.05300000
H       -1.02490000      -2.46540000       0.98470000
H        0.72800000      -0.44050000       2.28580000
H        1.67870000      -2.17860000      -2.10740000
H        0.62640000      -0.82500000      -2.74550000
H        2.26450000       0.87330000      -1.77830000
H        3.29860000      -0.49930000      -1.14350000
