18
Properties=species:S:1:pos:R:3 gdb_107500=T pbc="F F F"
O        0.58150000       0.50030000      -0.99420000
C       -0.01710000       0.28620000       0.27840000
C       -1.42770000      -0.21190000       0.14940000
N       -1.79700000      -1.27530000      -0.81820000
C       -2.47020000       0.04590000      -0.89030000
C       -3.59930000       0.01330000       0.15350000
C       -2.51010000      -0.25370000       1.21720000
C       -2.54070000      -0.90640000       2.52130000
O       -2.41630000       0.52550000       2.39690000
H        0.17500000       1.28460000      -1.37740000
H        0.60720000      -0.46410000       0.77760000
H        0.00020000       1.19130000       0.90090000
H       -1.05240000      -1.25490000      -1.51870000
H       -2.42060000       0.64510000      -1.79130000
H       -4.06690000       0.98670000       0.32040000
H       -4.36020000      -0.75650000       0.00650000
H       -3.48920000      -1.25180000       2.92930000
H       -1.65770000      -1.42060000       2.89750000
