17
Properties=species:S:1:pos:R:3 gdb_27688=T pbc="F F F"
C        0.00500000       1.49290000       0.09130000
C       -0.00530000       0.00550000      -0.03600000
C       -0.06500000      -0.79460000      -1.16320000
C       -0.04770000      -2.14950000      -0.74130000
N       -0.16280000      -3.27920000      -1.55350000
C        0.02780000      -2.15070000       0.64990000
N        0.04430000      -0.81450000       1.05040000
C        0.08140000      -3.22820000       1.54310000
C        0.14050000      -4.17160000       2.29650000
H        0.91610000       1.85760000       0.58160000
H       -0.04600000       1.95290000      -0.89780000
H       -0.84880000       1.86080000       0.67360000
H       -0.12630000      -0.43980000      -2.18120000
H        0.32160000      -3.19010000      -2.43650000
H        0.12300000      -4.12780000      -1.08150000
H        0.09640000      -0.51830000       2.00910000
H        0.16880000      -4.99920000       2.96010000
