16
Properties=species:S:1:pos:R:3 gdb_9597=T pbc="F F F"
C       -0.11120000       1.58020000      -0.03820000
C       -0.04590000       0.07020000       0.05220000
C        1.24370000      -0.67690000      -0.17510000
C        0.66810000      -0.66030000       1.21640000
C        1.33820000       0.12000000       2.28680000
O        1.29710000      -0.17390000       3.45480000
C       -1.27600000      -0.64450000      -0.39880000
O       -2.26420000      -0.09620000      -0.81440000
H        0.84990000       2.04710000       0.18600000
H       -0.40640000       1.87130000      -1.04970000
H       -0.86150000       1.98190000       0.64830000
H        1.22270000      -1.61970000      -0.71150000
H        2.12350000      -0.07030000      -0.36400000
H        0.19240000      -1.56620000       1.57920000
H        1.91280000       1.00550000       1.93550000
H       -1.21380000      -1.75560000      -0.32760000
