19
Properties=species:S:1:pos:R:3 gdb_106836=T pbc="F F F"
C        0.24970000       1.26850000       0.22070000
O       -0.19050000      -0.03570000      -0.13340000
C        0.50790000      -0.59190000      -1.17560000
C        1.93150000      -1.10840000      -1.06220000
C        0.81230000      -2.03790000      -1.46360000
C        0.46140000      -3.35810000      -0.85910000
O        1.30660000      -4.40010000      -1.32470000
O        0.53990000      -1.87430000      -2.86840000
C        0.12130000      -0.49730000      -2.65310000
H        1.31370000       1.27000000       0.49190000
H        0.09410000       1.98510000      -0.59740000
H       -0.34450000       1.57930000       1.08230000
H        2.69900000      -0.83650000      -1.78190000
H        2.26770000      -1.23230000      -0.03710000
H        0.58880000      -3.30960000       0.22640000
H       -0.59610000      -3.58130000      -1.06620000
H        1.21860000      -4.42470000      -2.28390000
H       -0.95930000      -0.39150000      -2.80120000
H        0.66380000       0.20750000      -3.29350000
