23
Properties=species:S:1:pos:R:3 gdb_119166=T pbc="F F F"
C       -0.04710000       1.40410000      -0.04710000
O       -0.03060000      -0.00170000      -0.04340000
C        0.64950000      -0.54160000       1.07000000
C        0.63040000      -2.05850000       1.00320000
C       -0.59180000      -2.71950000       0.40790000
C        0.70750000      -2.69980000      -0.36350000
C        1.31040000      -2.78800000       2.13210000
C        2.56650000      -2.30510000       2.81840000
C        1.25960000      -2.34770000       3.57620000
H        0.97040000       1.82510000      -0.08070000
H       -0.59070000       1.72280000      -0.93980000
H       -0.55480000       1.80970000       0.84250000
H        1.68970000      -0.17290000       1.08170000
H        0.17000000      -0.19270000       2.00080000
H       -0.92080000      -3.65680000       0.84440000
H       -1.38690000      -2.07550000       0.05290000
H        0.76170000      -2.04240000      -1.22260000
H        1.26900000      -3.62350000      -0.45670000
H        1.26500000      -3.86570000       1.99430000
H        3.33010000      -3.03690000       3.05850000
H        2.96350000      -1.33070000       2.55680000
H        0.78800000      -1.40170000       3.81790000
H        1.12510000      -3.10910000       4.33680000
