18
Properties=species:S:1:pos:R:3 gdb_68264=T pbc="F F F"
C        0.00070000       1.46430000       0.09800000
C        0.01150000      -0.02850000      -0.03130000
C        0.70780000      -0.94580000      -1.07230000
C        0.05480000      -1.87950000      -0.02920000
N        0.49930000      -0.95130000       1.09280000
C       -1.24350000      -0.99660000      -0.07890000
O       -2.06520000      -1.00610000       1.04720000
C       -2.06320000      -1.01180000      -1.27670000
C       -2.74900000      -1.01470000      -2.26330000
H        1.01260000       1.86220000       0.22930000
H       -0.43090000       1.91710000      -0.80010000
H       -0.60460000       1.76390000       0.95900000
H        0.32520000      -0.95480000      -2.09510000
H        1.80060000      -0.92240000      -1.04570000
H        0.11740000      -2.96390000       0.06710000
H        1.52140000      -0.92830000       1.13280000
H       -1.43780000      -1.00420000       1.78930000
H       -3.35950000      -1.02190000      -3.13230000
