18
Properties=species:S:1:pos:R:3 gdb_23404=T pbc="F F F"
O       -0.13480000       1.31080000       0.02290000
N       -0.00470000      -0.09590000       0.03010000
C       -1.13330000      -0.66180000      -0.01580000
C       -2.58680000      -0.22570000      -0.00170000
C       -3.09940000      -0.99890000      -1.22930000
N       -2.27260000      -2.24820000      -1.20860000
C       -1.42550000      -2.14450000       0.00110000
C       -2.30410000      -2.20740000       1.27530000
N       -3.10500000      -0.93800000       1.19830000
H        0.78500000       1.59550000       0.05040000
H       -2.80310000       0.83880000       0.01870000
H       -4.17010000      -1.20120000      -1.13020000
H       -2.92660000      -0.44400000      -2.15890000
H       -2.86430000      -3.07000000      -1.15560000
H       -0.57270000      -2.82100000      -0.02070000
H       -2.96430000      -3.08290000       1.26570000
H       -1.69480000      -2.25170000       2.18610000
H       -2.91410000      -0.37390000       2.01900000
