24
Properties=species:S:1:pos:R:3 gdb_121624=T pbc="F F F"
C       -0.02980000       1.46530000      -0.12360000
C       -0.17300000      -0.05860000      -0.11210000
C       -1.48470000      -0.51430000       0.53910000
N       -1.64010000      -1.95930000       0.57050000
C       -2.42030000      -2.63800000      -0.32100000
O       -3.08520000      -2.07750000      -1.17730000
C       -2.42390000      -4.16260000      -0.17100000
C       -3.84730000      -4.63000000       0.17180000
C       -1.92690000      -4.79900000      -1.47820000
H        0.90830000       1.77200000      -0.59540000
H       -0.85040000       1.93420000      -0.67720000
H       -0.04010000       1.87470000       0.89290000
H       -0.14000000      -0.44930000      -1.13550000
H        0.67420000      -0.50870000       0.42230000
H       -1.55160000      -0.12570000       1.56330000
H       -2.33780000      -0.12680000      -0.02320000
H       -1.07810000      -2.48860000       1.21660000
H       -1.74930000      -4.45310000       0.64520000
H       -4.54390000      -4.29020000      -0.59920000
H       -3.89150000      -5.72210000       0.22840000
H       -4.18180000      -4.22540000       1.13240000
H       -0.89300000      -4.51270000      -1.69650000
H       -1.97180000      -5.89070000      -1.41690000
H       -2.55220000      -4.46780000      -2.31160000
