16
Properties=species:S:1:pos:R:3 gdb_18501=T pbc="F F F"
O       -0.21660000       0.02650000      -0.17090000
C        0.03680000       1.19130000       0.00220000
C        1.39240000       1.82270000      -0.21060000
C        1.35630000       2.94530000      -1.25230000
C        0.55240000       4.26740000      -0.93280000
C        1.86800000       5.04100000      -1.07020000
O        2.78000000       4.49230000      -0.10920000
C        2.62540000       3.81290000      -1.35810000
H       -0.75580000       1.90070000       0.33760000
H        1.72570000       2.25850000       0.74100000
H        2.09650000       1.03740000      -0.50270000
H        1.06880000       2.55400000      -2.23270000
H       -0.18250000       4.50580000      -1.70460000
H        0.08360000       4.33830000       0.05200000
H        2.03580000       6.06550000      -1.38050000
H        3.52110000       3.64080000      -1.94400000
