19
Properties=species:S:1:pos:R:3 gdb_73806=T pbc="F F F"
C        0.08030000       1.51900000       0.01340000
C        0.01640000       0.02770000      -0.05280000
C       -1.03800000      -0.78600000       0.05210000
C       -2.48450000      -0.46090000       0.25010000
C       -0.54200000      -2.22230000      -0.05630000
O        0.81810000      -2.13790000      -0.40800000
C        1.26330000      -0.79350000      -0.26300000
C       -0.73910000      -2.95630000       1.27320000
O        0.14170000      -3.20990000       2.04840000
H        0.72890000       1.84590000       0.83600000
H        0.50780000       1.93660000      -0.90680000
H       -0.90290000       1.97050000       0.16410000
H       -2.66010000       0.61730000       0.24540000
H       -3.10030000      -0.90500000      -0.54210000
H       -2.86590000      -0.85300000       1.20090000
H       -1.09400000      -2.79040000      -0.82630000
H        1.81390000      -0.49830000      -1.16860000
H        1.95990000      -0.70780000       0.58640000
H       -1.80070000      -3.23340000       1.48110000
