21
Properties=species:S:1:pos:R:3 gdb_72603=T pbc="F F F"
C       -0.13560000       1.56650000      -0.08990000
C       -0.00640000       0.06270000      -0.00430000
C        0.91720000      -0.67810000      -1.01210000
C        1.61250000      -1.44690000       0.14510000
C        0.71520000      -0.73510000       1.19660000
C        1.36100000      -0.08810000       2.40070000
C       -0.60050000      -1.48800000       1.39280000
O       -1.62410000      -0.52160000       1.66180000
C       -1.25920000      -0.75960000       0.29650000
H        0.84500000       2.05430000      -0.05510000
H       -0.61730000       1.86480000      -1.02950000
H       -0.73860000       1.95080000       0.73810000
H        0.40070000      -1.29020000      -1.75750000
H        1.58940000       0.00040000      -1.54360000
H        1.52890000      -2.53760000       0.12000000
H        2.67040000      -1.19470000       0.25530000
H        2.14180000       0.62050000       2.10270000
H        0.61780000       0.45140000       2.99510000
H        1.83070000      -0.84200000       3.04490000
H       -0.76140000      -2.49620000       1.76190000
H       -2.04840000      -1.07320000      -0.38000000
