16
Properties=species:S:1:pos:R:3 gdb_43786=T pbc="F F F"
O       -0.02630000       0.03910000       0.06650000
C        0.01280000       1.23850000      -0.02530000
N       -1.05800000       2.13080000      -0.12980000
C       -0.40440000       3.46060000       0.02170000
C        0.74480000       3.29040000      -1.02280000
C        1.20740000       2.20640000       0.00110000
C        0.68960000       3.18590000       1.11300000
C       -1.30130000       4.58550000       0.05580000
C       -2.03580000       5.53570000       0.10020000
H       -1.92470000       1.93220000       0.35020000
H        0.44670000       2.97230000      -2.02290000
H        1.41250000       4.15240000      -1.05600000
H        2.19760000       1.76070000       0.00560000
H        1.35490000       4.03530000       1.27910000
H        0.34760000       2.76350000       2.06070000
H       -2.68590000       6.37520000       0.13240000
