18
Properties=species:S:1:pos:R:3 gdb_54861=T pbc="F F F"
C        0.79590000       0.10000000       1.26810000
C        0.00260000       0.23420000      -0.01480000
O        0.28200000       1.03770000      -0.87390000
C       -1.23060000      -0.66940000      -0.15450000
C       -1.74790000      -0.84620000      -1.56540000
C       -1.93240000      -2.13890000      -1.82860000
C       -1.49170000      -2.96830000      -0.67000000
C       -0.04180000      -2.85190000      -0.34020000
N       -1.03050000      -2.03800000       0.38810000
H        1.53890000       0.89660000       1.32400000
H        0.13030000       0.13370000       2.13670000
H        1.29480000      -0.87400000       1.30010000
H       -1.99730000      -0.18390000       0.47500000
H       -1.90150000      -0.01310000      -2.23720000
H       -2.31120000      -2.56120000      -2.75080000
H       -2.06340000      -3.83810000      -0.35820000
H        0.44590000      -3.60330000       0.27510000
H        0.59110000      -2.37570000      -1.08580000
