18
Properties=species:S:1:pos:R:3 gdb_118638=T pbc="F F F"
O        0.05840000       1.48950000      -0.20670000
C        0.06040000       0.07470000      -0.14240000
C       -1.34330000      -0.49030000       0.10480000
C       -1.37190000      -2.02120000       0.11470000
O       -0.60060000      -2.46130000       1.21610000
C       -0.31590000      -3.78380000       1.29260000
N        0.35030000      -4.21530000       2.27030000
C       -2.80730000      -2.53520000       0.17000000
O       -3.21760000      -3.32310000       0.97780000
H       -0.05170000       1.82830000       0.68730000
H        0.42790000      -0.27030000      -1.11610000
H        0.75230000      -0.30120000       0.62200000
H       -1.72520000      -0.13210000       1.06880000
H       -2.01750000      -0.11900000      -0.67460000
H       -0.94290000      -2.39210000      -0.83430000
H       -0.69580000      -4.36700000       0.44540000
H        0.49320000      -5.21880000       2.17870000
H       -3.45980000      -2.11590000      -0.62970000
