18
Properties=species:S:1:pos:R:3 gdb_125996=T pbc="F F F"
C       -0.70360000       1.26250000      -0.04460000
C        0.19940000       0.03330000       0.00680000
C        1.22440000      -0.03700000      -1.16820000
N        2.34500000      -0.69340000      -0.52570000
N        3.49620000      -1.22040000      -0.99190000
C        4.09120000      -1.56870000       0.14640000
N        3.40240000      -1.28860000       1.29380000
C        2.30410000      -0.73090000       0.81610000
C        1.05140000      -0.08560000       1.31470000
H       -0.11640000       2.18530000       0.02180000
H       -1.27830000       1.29640000      -0.97600000
H       -1.41660000       1.25880000       0.78560000
H       -0.42210000      -0.86660000      -0.05790000
H        0.85850000      -0.61440000      -2.02030000
H        1.51510000       0.95880000      -1.52490000
H        5.05880000      -2.04880000       0.14830000
H        1.26820000       0.90260000       1.73960000
H        0.54520000      -0.66630000       2.08930000
