18
Properties=species:S:1:pos:R:3 gdb_125422=T pbc="F F F"
C        0.19680000       1.46650000       0.04660000
C        0.02230000      -0.01100000      -0.05490000
N        0.11100000      -0.74500000      -1.15140000
C       -0.10130000      -2.02080000      -0.70400000
N       -0.31760000      -2.11470000       0.60180000
N       -0.23400000      -0.81810000       0.99580000
C       -0.09200000      -3.18210000      -1.61090000
C        0.44240000      -4.51890000      -1.13490000
C       -1.02890000      -4.34930000      -1.36790000
H        1.25640000       1.73380000       0.12560000
H       -0.19970000       1.94450000      -0.85120000
H       -0.32070000       1.87340000       0.92000000
H       -0.36350000      -0.58110000       1.96550000
H        0.10260000      -2.90680000      -2.64020000
H        1.01740000      -5.10980000      -1.83920000
H        0.78820000      -4.56200000      -0.10850000
H       -1.67180000      -4.27850000      -0.49810000
H       -1.47770000      -4.82220000      -2.23440000
