14
Properties=species:S:1:pos:R:3 gdb_16059=T pbc="F F F"
O       -0.00650000       1.37270000      -0.00140000
C        0.00960000      -0.01080000       0.05210000
C       -0.34140000      -0.80330000       1.27890000
C       -1.49510000      -0.11390000       1.99570000
O       -2.26440000       0.00160000       0.75980000
C       -1.29720000      -0.77760000       0.06070000
C       -1.68990000      -1.81680000      -0.89890000
O       -2.82120000      -2.05700000      -1.23850000
H       -0.93340000       1.64080000       0.07490000
H        0.80210000      -0.44210000      -0.55340000
H        0.25420000      -1.62280000       1.65910000
H       -2.02250000      -0.75550000       2.70660000
H       -1.28510000       0.86270000       2.44330000
H       -0.81470000      -2.37400000      -1.30660000
