17
Properties=species:S:1:pos:R:3 gdb_17454=T pbc="F F F"
C       -0.15600000       1.48200000      -0.05240000
N        0.10590000       0.05070000       0.04320000
C        1.42660000      -0.50660000      -0.15420000
C        2.55420000       0.33710000       0.41070000
C        3.20670000      -0.39670000       1.56560000
C        1.88080000       0.29110000       1.77940000
O        1.73390000       1.36400000       2.64490000
C        0.74460000      -0.54100000       1.20320000
H        0.62630000       2.12120000       0.37470000
H       -0.28540000       1.74060000      -1.10840000
H       -1.09430000       1.69840000       0.46730000
H        1.54240000      -1.32820000      -0.85320000
H        3.02840000       1.18890000      -0.06080000
H        3.28410000      -1.48090000       1.55480000
H        4.05470000       0.11520000       2.01290000
H        1.82910000       1.04250000       3.54770000
H        0.25110000      -1.37490000       1.69240000
