18
Properties=species:S:1:pos:R:3 gdb_10429=T pbc="F F F"
C       -0.31120000       1.62170000       0.05210000
C        0.09780000       0.15070000       0.17890000
C        0.67050000      -0.42090000      -1.11230000
C        0.68520000      -1.97540000      -1.24050000
C       -0.33390000      -1.75140000      -2.37260000
O       -0.24100000      -0.31690000      -2.23690000
C        2.01800000       0.18480000      -1.48230000
O        2.83160000       0.58100000      -0.68870000
H        0.55680000       2.26010000      -0.13670000
H       -1.02030000       1.75170000      -0.77010000
H       -0.78680000       1.97000000       0.97320000
H        0.85780000       0.03030000       0.95910000
H       -0.76910000      -0.45440000       0.46770000
H        1.63670000      -2.41030000      -1.55270000
H        0.32540000      -2.49960000      -0.35430000
H       -0.02370000      -2.08680000      -3.36870000
H       -1.34960000      -2.11460000      -2.17670000
H        2.20070000       0.20310000      -2.58120000
