24
Properties=species:S:1:pos:R:3 gdb_57380=T pbc="F F F"
C       -0.03550000       1.53320000      -0.00380000
C        0.00470000      -0.00610000       0.00750000
C        0.76330000      -0.49530000       1.25510000
C       -1.43150000      -0.56150000       0.02450000
C        0.72170000      -0.50110000      -1.24390000
C        0.36500000      -0.28340000      -2.73950000
N        1.64010000      -1.13530000      -2.84560000
C        2.17320000      -0.22900000      -1.72420000
C        1.02250000      -1.95420000      -1.70080000
H        0.97380000       1.95810000      -0.01920000
H       -0.57320000       1.91160000      -0.87960000
H       -0.54350000       1.91350000       0.88890000
H        0.26640000      -0.15250000       2.16900000
H        0.80840000      -1.58900000       1.29080000
H        1.79040000      -0.11580000       1.27170000
H       -1.99670000      -0.23080000      -0.85320000
H       -1.43540000      -1.65670000       0.03440000
H       -1.96890000      -0.21860000       0.91520000
H       -0.52310000      -0.78160000      -3.13910000
H        0.47850000       0.72010000      -3.15980000
H        2.42650000       0.77900000      -2.06540000
H        2.99800000      -0.67590000      -1.16170000
H        1.75880000      -2.53390000      -1.13650000
H        0.18540000      -2.58170000      -2.02000000
