18
Properties=species:S:1:pos:R:3 gdb_101050=T pbc="F F F"
C       -0.07010000       1.64580000       0.39660000
C       -0.05070000       0.14820000       0.06610000
C        0.83050000      -0.64510000       1.03750000
O        2.15370000      -0.15160000       0.90580000
C       -1.45280000      -0.44170000       0.02510000
C       -2.21290000      -0.53310000      -1.23850000
O       -1.60240000      -1.68710000      -0.66870000
C       -2.21820000      -0.36040000       1.26210000
N       -2.80350000      -0.27610000       2.25530000
H        0.95330000       2.02210000       0.43600000
H       -0.62420000       2.21290000      -0.35750000
H       -0.53790000       1.82830000       1.36990000
H        0.36770000       0.00260000      -0.93650000
H        0.45440000      -0.51960000       2.06520000
H        0.77380000      -1.71440000       0.78600000
H        2.71090000      -0.60770000       1.54280000
H       -3.30040000      -0.51780000      -1.21590000
H       -1.74750000      -0.15190000      -2.14590000
