17
Properties=species:S:1:pos:R:3 gdb_81110=T pbc="F F F"
C       -0.14150000       1.53410000      -0.03380000
C        0.00290000       0.02440000      -0.02290000
C        1.29150000      -0.60350000      -0.68270000
N        2.01440000      -0.16920000       0.56410000
C        0.74490000      -0.63340000       1.22250000
C        0.65600000      -2.12960000       0.83690000
C        1.02820000      -2.10180000      -0.44500000
C        0.48000000      -0.24040000       2.59140000
N        0.24440000       0.07210000       3.67890000
H        0.80050000       2.02550000       0.21380000
H       -0.46720000       1.87260000      -1.02350000
H       -0.90200000       1.85060000       0.68800000
H       -0.93000000      -0.47750000      -0.28310000
H        1.68600000      -0.26590000      -1.64000000
H        2.79350000      -0.78940000       0.79020000
H        0.32440000      -2.93390000       1.47610000
H        1.08880000      -2.90000000      -1.17040000
