20
Properties=species:S:1:pos:R:3 gdb_55819=T pbc="F F F"
C       -0.20730000       1.42570000      -0.02800000
C       -0.33130000      -0.06210000      -0.32820000
O        0.17680000      -0.57950000      -1.30410000
N       -1.04680000      -0.77890000       0.59570000
C       -1.14500000      -2.20730000       0.53800000
C       -2.32690000      -2.93660000       1.10460000
C       -3.62660000      -2.14970000       0.88330000
C       -3.34320000      -2.13160000      -0.65280000
C       -2.05700000      -2.92650000      -0.41240000
H       -0.20840000       1.97320000      -0.97160000
H       -1.00690000       1.80420000       0.61490000
H        0.75150000       1.61540000       0.46600000
H       -1.34900000      -0.31650000       1.43800000
H       -0.19790000      -2.72440000       0.68000000
H       -2.19570000      -3.73340000       1.82750000
H       -4.51170000      -2.73880000       1.13180000
H       -3.70750000      -1.18050000       1.38690000
H       -4.08970000      -2.69540000      -1.21520000
H       -3.21320000      -1.15250000      -1.12170000
H       -1.67090000      -3.71150000      -1.05050000
