17
Properties=species:S:1:pos:R:3 gdb_50738=T pbc="F F F"
O       -0.51640000       0.74620000      -0.74700000
C        0.15910000       0.98750000       0.22130000
C        1.33450000       1.94550000       0.19440000
C        1.47220000       2.68730000      -1.15450000
O        2.55770000       3.59140000      -1.13560000
C        2.37610000       4.61750000      -0.18140000
C        2.33020000       4.04670000       1.24990000
C        1.28870000       2.94750000       1.35430000
O        0.48370000       2.87180000       2.25260000
H       -0.03560000       0.51010000       1.20160000
H        2.24830000       1.34790000       0.34610000
H        1.65770000       1.97600000      -1.96060000
H        0.53020000       3.20950000      -1.37970000
H        3.21730000       5.30600000      -0.29390000
H        1.44860000       5.17530000      -0.39000000
H        3.31060000       3.60900000       1.47770000
H        2.11250000       4.81950000       1.99120000
