17
Properties=species:S:1:pos:R:3 gdb_31749=T pbc="F F F"
C        0.02870000       1.35960000      -0.03740000
O        0.28680000      -0.03080000      -0.11180000
C        0.74810000      -0.58850000       1.02860000
C        1.00810000      -0.02370000       2.24400000
O        1.47260000      -0.99010000       3.10100000
C        1.49100000      -2.16310000       2.41930000
C        1.96510000      -3.37440000       3.15820000
O        2.46530000      -4.36760000       2.28240000
C        1.06230000      -1.98280000       1.14110000
H        0.94240000       1.91880000       0.20590000
H       -0.33500000       1.66620000      -1.01910000
H       -0.73470000       1.57960000       0.72120000
H        0.93390000       0.97030000       2.64610000
H        2.70400000      -3.06320000       3.91350000
H        1.13990000      -3.85160000       3.70110000
H        3.15360000      -3.95770000       1.74700000
H        0.96200000      -2.73370000       0.37490000
