20
Properties=species:S:1:pos:R:3 gdb_91266=T pbc="F F F"
C        0.59200000       1.53430000      -0.15180000
C        0.08430000       0.10710000       0.02000000
C        0.66960000      -0.94720000      -0.97140000
C        1.37530000      -1.67040000       0.20880000
N        2.76450000      -1.33480000       0.41270000
C        3.04770000      -0.48390000       1.45120000
O        4.14980000      -0.08710000       1.75870000
C        1.71530000      -0.15230000       2.13880000
C        0.63720000      -0.73830000       1.22680000
H        1.68560000       1.58430000      -0.16720000
H        0.23270000       1.94850000      -1.10020000
H        0.23610000       2.19030000       0.65000000
H       -1.00940000       0.12060000       0.01360000
H       -0.09150000      -1.56410000      -1.45620000
H        1.34260000      -0.55510000      -1.73900000
H        1.20400000      -2.74950000       0.28070000
H        3.51330000      -1.68390000      -0.16520000
H        1.71830000      -0.61670000       3.13050000
H        1.64240000       0.92650000       2.29340000
H       -0.16150000      -1.23230000       1.78070000
