17
Properties=species:S:1:pos:R:3 gdb_49382=T pbc="F F F"
O       -0.04710000       0.05280000      -0.28040000
C        0.07190000       1.19250000       0.09430000
C        1.33910000       1.96140000       0.06590000
C        1.21770000       3.45840000      -0.19070000
C        1.54510000       2.96960000       1.18970000
C        2.97440000       3.55710000       1.30260000
C        2.76710000       5.01660000       0.80920000
C        2.54920000       4.19200000      -0.49060000
O        3.55600000       3.25970000      -0.00010000
H       -0.80270000       1.75600000       0.50100000
H        2.19780000       1.43140000      -0.32530000
H        0.26850000       3.89770000      -0.47180000
H        0.86150000       3.01230000       2.02870000
H        3.60180000       3.27820000       2.14780000
H        1.93500000       5.59910000       1.21280000
H        3.69710000       5.58680000       0.79050000
H        2.73790000       4.56810000      -1.49490000
