23
Properties=species:S:1:pos:R:3 gdb_73535=T pbc="F F F"
C       -0.12180000       1.55650000      -0.12310000
C       -0.02840000       0.03200000      -0.04140000
C       -1.44210000      -0.56510000       0.18030000
C       -1.48160000      -0.94340000       1.71520000
C       -0.05990000      -0.68230000       2.33430000
C        0.78380000      -0.66520000       1.08470000
C        2.09880000      -0.13850000       0.43830000
C        1.19970000      -0.66510000      -0.74840000
C        0.94340000      -1.90570000       0.13630000
H        0.84260000       2.06010000      -0.21070000
H       -0.71290000       1.83770000      -1.00260000
H       -0.63820000       1.97200000       0.75120000
H       -2.21500000       0.16940000      -0.05980000
H       -1.65390000      -1.44150000      -0.43560000
H       -2.24870000      -0.37320000       2.24630000
H       -1.74510000      -1.99840000       1.83130000
H       -0.02750000       0.28820000       2.84220000
H        0.21500000      -1.44770000       3.06580000
H        2.30740000       0.92910000       0.49760000
H        3.00520000      -0.71930000       0.62930000
H        1.46560000      -0.65390000      -1.80820000
H        1.80960000      -2.54180000       0.33770000
H        0.06460000      -2.51230000      -0.07930000
