16
Properties=species:S:1:pos:R:3 gdb_69091=T pbc="F F F"
C       -0.13890000       1.57810000      -0.00950000
C        0.12910000       0.10340000      -0.00100000
C       -0.67500000      -0.88660000       0.81040000
C        0.81240000      -0.68450000       1.10230000
O        1.71530000      -1.56260000       0.48320000
C        1.37900000      -1.57350000      -0.89870000
O        0.71570000      -0.36090000      -1.19110000
C        1.27360000      -0.12260000       2.33630000
N        1.60120000       0.36150000       3.33440000
H        0.76410000       2.12400000      -0.29520000
H       -0.93150000       1.81700000      -0.72510000
H       -0.45450000       1.91620000       0.98030000
H       -1.36710000      -0.46990000       1.53350000
H       -0.97690000      -1.83680000       0.38470000
H        2.29540000      -1.63860000      -1.49150000
H        0.72660000      -2.43320000      -1.11590000
