25
Properties=species:S:1:pos:R:3 gdb_118119=T pbc="F F F"
C       -1.11420000       2.57670000       0.79260000
C       -0.80050000       1.15780000       0.30840000
C       -2.00140000       0.21320000       0.43490000
C       -1.77150000      -1.21010000      -0.11160000
C       -0.72570000      -2.00220000       0.68800000
C       -3.08640000      -1.96370000      -0.11370000
O       -4.09120000      -1.54870000      -1.04670000
C       -3.55620000      -2.87280000      -1.17420000
C       -2.80390000      -3.20000000      -2.43900000
H       -0.24660000       3.23590000       0.68910000
H       -1.93840000       3.01630000       0.22010000
H       -1.40940000       2.57820000       1.84790000
H       -0.47830000       1.19280000      -0.74100000
H        0.05180000       0.76470000       0.87570000
H       -2.30530000       0.14840000       1.49000000
H       -2.85330000       0.64660000      -0.10330000
H       -1.42580000      -1.11640000      -1.14770000
H       -0.58970000      -3.00690000       0.27480000
H        0.24770000      -1.50490000       0.67920000
H       -1.03350000      -2.11150000       1.73490000
H       -3.48170000      -2.14590000       0.89080000
H       -4.25950000      -3.65050000      -0.86560000
H       -2.10350000      -2.40970000      -2.71520000
H       -2.24780000      -4.13660000      -2.32080000
H       -3.50610000      -3.33270000      -3.26890000
