15
Properties=species:S:1:pos:R:3 gdb_2432=T pbc="F F F"
C       -0.06220000       1.48820000       0.00800000
C        0.02790000      -0.00680000      -0.03120000
C        0.91570000      -0.88540000      -0.91870000
C        0.06020000      -2.06390000      -0.39170000
O        0.42180000      -2.14550000       1.01770000
C       -0.28530000      -0.91630000       1.17510000
C       -1.09770000      -1.04640000      -0.06890000
H        0.88050000       1.93160000       0.34900000
H       -0.28840000       1.90400000      -0.98060000
H       -0.85020000       1.82070000       0.69310000
H        0.73050000      -0.69000000      -1.97890000
H        1.99110000      -0.93730000      -0.71760000
H       -0.00000000      -3.03240000      -0.88300000
H       -0.51900000      -0.56250000       2.17110000
H       -2.15510000      -0.99400000      -0.28900000
