25
Properties=species:S:1:pos:R:3 gdb_58309=T pbc="F F F"
C        0.01110000       1.51750000       0.17450000
C       -0.05000000      -0.00750000      -0.01110000
C       -1.52500000      -0.43950000      -0.07020000
C        0.75380000      -0.49860000      -1.24750000
C        2.14890000       0.14390000      -1.33060000
C        0.87360000      -2.03730000      -1.26160000
C        1.30200000      -2.62520000      -2.62420000
C        1.36940000      -4.08160000      -2.60880000
C        1.41620000      -5.28220000      -2.56720000
H        1.02300000       1.87560000       0.37810000
H       -0.35700000       2.03790000      -0.71860000
H       -0.62030000       1.82410000       1.01470000
H        0.40560000      -0.46960000       0.87800000
H       -2.02270000       0.00410000      -0.94120000
H       -1.65290000      -1.52310000      -0.13080000
H       -2.06080000      -0.09950000       0.82200000
H        0.18700000      -0.19420000      -2.14170000
H        2.73160000      -0.26820000      -2.15950000
H        2.09570000       1.22400000      -1.48490000
H        2.71580000      -0.03700000      -0.40910000
H        1.59370000      -2.35260000      -0.49610000
H       -0.07940000      -2.49980000      -0.99290000
H        0.59080000      -2.30250000      -3.39650000
H        2.27750000      -2.22650000      -2.92630000
H        1.46180000      -6.34250000      -2.54330000
