18
Properties=species:S:1:pos:R:3 gdb_71503=T pbc="F F F"
C       -0.00360000       1.55370000      -0.05630000
C        0.01150000       0.04640000      -0.02450000
C        0.57490000      -0.95370000      -1.04510000
N        0.00930000      -1.90270000       0.01420000
C        0.58470000      -0.91910000       1.06260000
C       -0.32200000      -0.99490000       2.27800000
C       -1.66370000      -0.96000000       1.52950000
O       -2.78180000      -0.92860000       1.96830000
C       -1.20630000      -0.93740000       0.08930000
H        1.01610000       1.95140000      -0.10180000
H       -0.54770000       1.92220000      -0.93230000
H       -0.48740000       1.96630000       0.83570000
H        0.07940000      -1.03880000      -2.01640000
H        1.66280000      -1.02200000      -1.15250000
H        1.66510000      -0.99180000       1.19990000
H       -0.20870000      -1.92770000       2.83930000
H       -0.22060000      -0.15660000       2.97380000
H       -1.94900000      -1.02690000      -0.70250000
