17
Properties=species:S:1:pos:R:3 gdb_51583=T pbc="F F F"
N       -0.25250000       1.25150000       0.12910000
C       -0.35040000       0.02120000       0.38040000
O       -0.84100000      -0.81560000      -0.56710000
C       -0.88620000      -2.17850000      -0.22760000
C       -2.00530000      -2.67890000       0.64960000
C       -2.00540000      -2.96910000      -0.83600000
C       -3.00310000      -2.27260000      -1.74930000
C       -4.31900000      -2.91170000      -1.71440000
N       -5.35230000      -3.42750000      -1.67950000
H        0.12860000       1.74370000       0.93440000
H       -0.07980000      -0.49050000       1.31250000
H        0.09380000      -2.64420000      -0.15720000
H       -1.80550000      -3.48770000       1.34270000
H       -2.71430000      -1.93870000       1.00550000
H       -1.76210000      -3.98400000      -1.13270000
H       -3.10630000      -1.22180000      -1.46410000
H       -2.63920000      -2.27730000      -2.78320000
