17
Properties=species:S:1:pos:R:3 gdb_124738=T pbc="F F F"
C       -0.01660000       1.56670000       0.88260000
C       -0.18520000       0.43070000      -0.12940000
N        0.82370000      -0.65160000      -0.01490000
H        1.74250000      -0.29500000      -0.25960000
H        0.88130000      -0.96070000       0.95310000
H       -0.12690000      -2.04820000      -0.95400000
C       -1.54440000      -0.21660000      -0.07500000
N       -2.60270000       0.38160000       0.41890000
O       -3.65370000      -0.49940000       0.25090000
C       -3.20070000      -1.63180000      -0.33650000
C       -1.86660000      -1.51970000      -0.57420000
O       -1.02280000      -2.40230000      -1.14360000
H        0.96750000       2.03270000       0.76970000
H       -0.78580000       2.32960000       0.74030000
H       -0.11100000       1.18950000       1.90590000
H       -0.05860000       0.84030000      -1.14120000
H       -3.92790000      -2.40510000      -0.51820000
