21
Properties=species:S:1:pos:R:3 gdb_119509=T pbc="F F F"
O       -0.12440000       1.47790000      -0.01990000
C       -0.01450000       0.06940000      -0.16350000
C       -1.37780000      -0.54190000       0.15290000
C       -1.36900000      -2.04250000       0.08880000
C       -1.56050000      -2.82710000      -1.18490000
C       -2.52720000      -3.01720000      -0.04320000
C       -1.96460000      -3.86090000       1.13410000
C       -0.55840000      -4.35470000       0.92900000
C       -0.79170000      -2.90490000       1.25910000
H        0.73240000       1.86770000      -0.21610000
H        0.28430000      -0.20870000      -1.18660000
H        0.74490000      -0.34360000       0.52020000
H       -1.68210000      -0.20500000       1.15240000
H       -2.11470000      -0.13910000      -0.55200000
H       -1.96430000      -2.23700000      -2.00330000
H       -0.88190000      -3.60430000      -1.51840000
H       -3.58100000      -2.78910000      -0.14570000
H       -2.59800000      -4.24840000       1.92170000
H       -0.17180000      -4.93620000       1.76130000
H       -0.18380000      -4.68890000      -0.03210000
H       -0.39270000      -2.44950000       2.15730000
