21
Properties=species:S:1:pos:R:3 gdb_63350=T pbc="F F F"
C       -0.03360000       1.54350000      -0.03600000
C       -0.02870000       0.00450000       0.02670000
C       -1.48530000      -0.50400000       0.11640000
C        0.65220000      -0.55760000      -1.24920000
C        0.99270000      -2.03030000      -1.11900000
O        0.62550000      -2.86730000      -1.90990000
C        1.84840000      -2.37890000       0.09350000
C        1.57230000      -1.49130000       1.27950000
C        0.74010000      -0.45210000       1.24960000
H        0.98550000       1.94290000      -0.05830000
H       -0.55650000       1.89460000      -0.93200000
H       -0.54270000       1.96750000       0.83650000
H       -2.07930000      -0.12670000      -0.72360000
H       -1.52790000      -1.59710000       0.09780000
H       -1.95890000      -0.16530000       1.04360000
H        0.02500000      -0.41520000      -2.13330000
H        1.59500000      -0.01500000      -1.40500000
H        1.69150000      -3.43670000       0.33150000
H        2.90530000      -2.29600000      -0.20580000
H        2.08040000      -1.75010000       2.20530000
H        0.56980000       0.12170000       2.15870000
