18
Properties=species:S:1:pos:R:3 gdb_22199=T pbc="F F F"
O       -0.04780000       1.30270000      -0.02430000
C        0.15890000      -0.10230000      -0.04940000
C       -1.22020000      -0.74410000       0.03150000
C       -1.23210000      -2.24780000       0.02490000
C       -2.57630000      -2.94570000       0.01730000
C       -2.95440000      -3.35700000      -1.40060000
O       -3.93550000      -2.96540000      -1.97580000
N       -0.11030000      -2.85930000       0.00020000
O       -0.26850000      -4.25600000      -0.02270000
H        0.81090000       1.73150000      -0.07780000
H        0.66600000      -0.42340000      -0.97030000
H        0.77730000      -0.43830000       0.79470000
H       -1.72650000      -0.38760000       0.93880000
H       -1.83520000      -0.38110000      -0.80330000
H       -2.50380000      -3.85630000       0.62260000
H       -3.35990000      -2.29430000       0.40890000
H       -2.23410000      -4.05310000      -1.87760000
H        0.64320000      -4.56520000      -0.00010000
