18
Properties=species:S:1:pos:R:3 gdb_91199=T pbc="F F F"
O        0.40790000       1.16770000      -0.53060000
C        0.12350000      -0.12350000      -0.04490000
C        0.18440000      -0.35250000       1.49270000
C       -1.35440000      -0.63490000       1.52460000
N       -2.07740000       0.40140000       2.24090000
C       -2.50220000       1.40180000       1.59780000
O       -2.45290000       1.63190000       0.25440000
C       -2.38870000       0.44300000      -0.56460000
C       -1.38160000      -0.55690000      -0.03610000
H       -0.20400000       1.79100000      -0.12050000
H        0.76880000      -0.79390000      -0.61750000
H        0.80020000      -1.20360000       1.79270000
H        0.48410000       0.52260000       2.07380000
H       -1.62830000      -1.60230000       1.95030000
H       -2.96110000       2.24610000       2.10990000
H       -3.39280000       0.00220000      -0.59060000
H       -2.12880000       0.79590000      -1.56470000
H       -1.54460000      -1.52410000      -0.52010000
