23
Properties=species:S:1:pos:R:3 gdb_104176=T pbc="F F F"
C        0.11380000       1.51500000      -0.04060000
C       -0.02230000      -0.01070000      -0.00500000
C       -1.46900000      -0.52610000      -0.01400000
O       -2.17940000      -0.05670000       1.14560000
C       -2.27000000      -0.17390000      -1.29000000
C       -3.37310000      -1.23970000      -1.31460000
C       -2.60720000      -2.52740000      -0.96530000
O       -1.88910000      -3.02930000      -2.09560000
C       -1.55200000      -2.07400000       0.06320000
H        1.16670000       1.81160000      -0.02830000
H       -0.33880000       1.94290000      -0.94130000
H       -0.35840000       1.98130000       0.83170000
H        0.50260000      -0.44700000      -0.86350000
H        0.46830000      -0.39810000       0.89610000
H       -2.26800000       0.89900000       1.06980000
H       -2.64990000       0.85240000      -1.27560000
H       -1.63040000      -0.28440000      -2.17210000
H       -4.10950000      -1.02840000      -0.53200000
H       -3.90400000      -1.31250000      -2.26980000
H       -3.26670000      -3.30890000      -0.56420000
H       -2.53240000      -3.24740000      -2.77780000
H       -0.59770000      -2.54810000      -0.17710000
H       -1.82800000      -2.35610000       1.08120000
