18
Properties=species:S:1:pos:R:3 gdb_32337=T pbc="F F F"
C       -0.17990000       1.55170000       0.01310000
C        0.09490000       0.03910000       0.05140000
C        0.75720000      -0.47910000      -1.19980000
C        2.02960000      -0.91670000      -1.20780000
O        2.67150000      -1.37580000      -2.30790000
C        2.04350000      -1.42980000      -3.55420000
N        2.66890000      -1.85870000      -4.57390000
C        0.66690000      -0.97490000      -3.57950000
C        0.05740000      -0.52280000      -2.46520000
H        0.75340000       2.11460000      -0.08460000
H       -0.81880000       1.82020000      -0.83450000
H       -0.68380000       1.87880000       0.92770000
H        0.72470000      -0.19580000       0.91670000
H       -0.85170000      -0.49500000       0.20770000
H        2.67380000      -0.95000000      -0.33660000
H        3.62170000      -2.12620000      -4.32600000
H        0.17180000      -1.02660000      -4.54050000
H       -0.97590000      -0.19040000      -2.50490000
