20
Properties=species:S:1:pos:R:3 gdb_83790=T pbc="F F F"
C       -0.14850000       1.51040000       0.13390000
C       -0.02790000       0.00800000      -0.01260000
C        0.44100000      -0.71540000      -1.24570000
C        1.09920000      -0.01280000      -2.41590000
O        2.48100000      -0.35880000      -2.51540000
C        3.23340000      -0.14690000      -1.35590000
C        3.06320000       1.09330000      -0.51980000
C        2.55880000      -0.26370000      -0.01130000
N        1.21220000      -0.76310000       0.00020000
H        0.32740000       2.08040000      -0.66490000
H       -1.20940000       1.78110000       0.13940000
H        0.28200000       1.84320000       1.08420000
H       -0.79960000      -0.51360000       0.55400000
H       -0.03630000      -1.65980000      -1.50330000
H        0.65490000      -0.34490000      -3.35680000
H        0.98700000       1.07860000      -2.36840000
H        4.22390000      -0.56400000      -1.49670000
H        3.94460000       1.48880000      -0.02560000
H        2.36730000       1.85370000      -0.84170000
H        3.14410000      -0.68530000       0.80060000
