17
Properties=species:S:1:pos:R:3 gdb_22647=T pbc="F F F"
O       -0.15070000       1.30620000       0.22330000
N       -0.01040000      -0.09030000       0.18850000
C       -1.12720000      -0.65630000      -0.03010000
C       -2.48500000      -0.01010000      -0.20460000
C       -3.41720000      -1.17910000      -0.57530000
C       -2.75560000      -2.42790000       0.07460000
C       -1.23800000      -2.16380000      -0.12060000
C       -3.10540000      -2.53790000       1.49280000
N       -3.38650000      -2.61850000       2.61120000
H        0.74750000       1.59770000       0.41320000
H       -2.78200000       0.45970000       0.74060000
H       -2.46190000       0.78640000      -0.95260000
H       -4.44850000      -1.03460000      -0.24930000
H       -3.42710000      -1.33040000      -1.65950000
H       -3.06990000      -3.35290000      -0.41660000
H       -0.95440000      -2.50460000      -1.12390000
H       -0.60180000      -2.68120000       0.59840000
