16
Properties=species:S:1:pos:R:3 gdb_74697=T pbc="F F F"
C       -0.04630000       1.42750000       0.06590000
C       -0.00910000      -0.06270000      -0.05120000
N       -0.06380000      -0.67890000      -1.16350000
C        0.02890000      -2.15430000      -1.07290000
C        1.14780000      -2.51550000      -0.04470000
C        0.13120000      -2.11080000       1.06120000
O        0.09100000      -0.67140000       1.16950000
C       -0.94120000      -2.57440000       0.03790000
O       -1.98040000      -3.15820000       0.11320000
H        0.85350000       1.78860000       0.57380000
H       -0.11430000       1.87040000      -0.92650000
H       -0.90580000       1.73640000       0.66900000
H       -0.00310000      -2.60830000      -2.06130000
H        1.37210000      -3.58360000      -0.01480000
H        2.06160000      -1.92210000      -0.10250000
H        0.17420000      -2.51430000       2.07080000
