17
Properties=species:S:1:pos:R:3 gdb_68524=T pbc="F F F"
C       -0.11570000       1.47950000      -0.00210000
C        0.06910000      -0.01540000      -0.00610000
C        0.75560000      -0.71470000      -1.19650000
C        0.46180000      -2.11880000      -0.60580000
C        1.02710000      -1.94180000       0.80470000
C        0.79740000      -0.67790000       1.16570000
C       -1.06370000      -1.95930000      -0.42460000
O       -1.93860000      -2.76450000      -0.55050000
O       -1.27040000      -0.65870000      -0.07160000
H        0.85980000       1.97500000       0.01820000
H       -0.65640000       1.80640000      -0.89410000
H       -0.68200000       1.79720000       0.87800000
H        0.25190000      -0.51050000      -2.14610000
H        1.82280000      -0.49970000      -1.27030000
H        0.74400000      -3.01130000      -1.15750000
H        1.44430000      -2.74530000       1.39620000
H        0.98640000      -0.20140000       2.11820000
