21
Properties=species:S:1:pos:R:3 gdb_121318=T pbc="F F F"
C       -0.15160000       1.49020000       0.02540000
C        0.11210000      -0.00450000       0.06880000
O        0.59030000      -0.40260000      -1.21370000
C        0.83150000      -1.77520000      -1.35590000
C        0.92970000      -2.18610000      -2.82780000
C        1.72550000      -3.50720000      -2.79320000
C        2.79480000      -3.27550000      -1.70930000
C        2.17480000      -2.25390000      -0.75330000
O        2.65820000      -1.85780000       0.27660000
H        0.77110000       2.03560000      -0.19170000
H       -0.88410000       1.73230000      -0.75020000
H       -0.53790000       1.83440000       0.98960000
H        0.84930000      -0.25250000       0.84010000
H       -0.81560000      -0.55590000       0.29930000
H        0.03680000      -2.36680000      -0.86110000
H       -0.04680000      -2.27970000      -3.30720000
H        1.49150000      -1.41010000      -3.36120000
H        1.06580000      -4.33260000      -2.50180000
H        2.15170000      -3.76480000      -3.76520000
H        3.11920000      -4.17220000      -1.17520000
H        3.69760000      -2.81490000      -2.13040000
