19
Properties=species:S:1:pos:R:3 gdb_112460=T pbc="F F F"
C       -0.09970000       1.55020000      -0.08810000
C       -0.03090000       0.02340000       0.00410000
C        0.80650000      -0.49510000       1.19700000
N        0.26400000      -0.06870000       2.49020000
C       -0.42320000      -0.82080000       3.40580000
O       -0.96100000      -0.35650000       4.39400000
N       -0.43860000      -2.18280000       3.12920000
C        0.30200000      -2.74440000       2.09630000
C        0.91980000      -1.99570000       1.18270000
H        0.90170000       1.99050000      -0.15940000
H       -0.66320000       1.86470000      -0.97130000
H       -0.59860000       1.98550000       0.78420000
H       -1.03890000      -0.40060000       0.08000000
H        0.41350000      -0.38080000      -0.91410000
H        1.81210000      -0.05470000       1.10250000
H        0.24480000       0.91600000       2.70140000
H       -0.83660000      -2.75310000       3.85570000
H        0.33880000      -3.82750000       2.09190000
H        1.48210000      -2.45890000       0.38280000
