17
Properties=species:S:1:pos:R:3 gdb_29880=T pbc="F F F"
C       -0.30750000       1.44730000      -0.01330000
N        0.00480000       0.02640000       0.01750000
C        0.22030000      -0.67350000      -1.15210000
N        0.49870000      -1.91530000      -1.22580000
C        0.59600000      -2.64100000      -0.00760000
N        0.86930000      -3.88590000       0.02300000
N        0.38330000      -1.96330000       1.20810000
C        0.10730000      -0.71280000       1.19820000
C       -0.12020000       0.01350000       2.49280000
H        0.44730000       2.03650000       0.51600000
H       -0.32760000       1.77520000      -1.05450000
H       -1.28690000       1.65330000       0.42870000
H        0.13530000      -0.07620000      -2.06040000
H        0.98950000      -4.20440000      -0.93980000
H       -0.00330000      -0.70260000       3.30460000
H        0.59710000       0.83050000       2.62740000
H       -1.12450000       0.44890000       2.53900000
