17
Properties=species:S:1:pos:R:3 gdb_66815=T pbc="F F F"
O       -0.13110000       1.41940000       0.06860000
C        0.01270000       0.04740000       0.04910000
C       -0.08170000      -0.84480000      -1.17000000
C        0.96900000      -1.94170000      -1.09190000
C        0.69300000      -2.82960000       0.10020000
C        1.78580000      -1.77550000       0.17910000
C        0.86410000      -0.84250000       1.00350000
C       -0.26830000      -1.92940000       0.92460000
C       -1.07400000      -1.00070000      -0.01600000
H        0.60590000       1.80790000      -0.41650000
H       -0.42870000      -0.42940000      -2.10740000
H        1.43000000      -2.35530000      -1.97940000
H        0.75920000      -3.91040000       0.09000000
H        2.86200000      -1.88560000       0.23600000
H        1.18630000      -0.44090000       1.96090000
H       -0.72920000      -2.31420000       1.83080000
H       -2.14700000      -0.90190000      -0.12560000
