19
Properties=species:S:1:pos:R:3 gdb_107739=T pbc="F F F"
O        0.57130000       0.10120000      -0.70400000
C       -0.30450000       0.40890000       0.37270000
C       -1.59500000      -0.35100000       0.19730000
C       -2.49940000      -0.71980000       1.44000000
C       -3.06100000      -1.75170000       0.45510000
C       -4.13170000      -1.35810000      -0.26370000
C       -3.66590000      -0.76880000      -1.59160000
C       -2.17130000      -0.58480000      -1.26570000
C       -1.77410000      -1.72140000      -0.39150000
H        1.35210000       0.65610000      -0.62230000
H        0.14510000       0.12430000       1.33910000
H       -0.50920000       1.49140000       0.41740000
H       -1.84830000      -1.09610000       2.23950000
H       -3.20290000       0.01510000       1.84420000
H       -5.03230000      -0.97620000       0.21030000
H       -3.78450000      -1.38220000      -2.49700000
H       -4.21680000       0.16360000      -1.76780000
H       -1.48220000      -0.23210000      -2.02780000
H       -1.05060000      -2.50830000      -0.55840000
