18
Properties=species:S:1:pos:R:3 gdb_67155=T pbc="F F F"
C        0.04900000       1.53980000       0.12680000
C       -0.01420000       0.05180000      -0.02460000
C        0.61520000      -0.81040000      -1.18290000
C        1.41080000      -1.52530000      -0.05740000
N        0.61240000      -0.87260000       1.02830000
C       -0.70960000      -1.56040000       1.17380000
C       -1.31050000      -0.84230000      -0.06480000
C       -0.76700000      -1.45010000      -1.36390000
O       -1.27180000      -2.07770000      -2.25110000
H        1.08780000       1.88410000       0.16180000
H       -0.44820000       2.03670000      -0.71340000
H       -0.44220000       1.85840000       1.05200000
H        1.13910000      -0.44250000      -2.06580000
H        1.41240000      -2.62010000      -0.04360000
H        2.44540000      -1.17300000      -0.01460000
H       -0.67120000      -2.65460000       1.16630000
H       -1.19370000      -1.23330000       2.09850000
H       -2.34570000      -0.50030000      -0.04230000
