18
Properties=species:S:1:pos:R:3 gdb_54924=T pbc="F F F"
N        0.02370000       1.24420000       0.52700000
C        0.00210000       0.16100000      -0.30120000
O        0.94720000      -0.12740000      -1.01570000
C       -1.27500000      -0.66020000      -0.27410000
C       -1.82090000      -0.95210000      -1.70720000
C       -1.14290000      -2.35890000      -1.66200000
C       -0.99300000      -2.18750000      -0.11640000
C       -1.88110000      -3.49850000      -2.16270000
C       -2.51470000      -4.43950000      -2.56370000
H        0.85080000       1.81860000       0.54160000
H       -0.74970000       1.48970000       1.11820000
H       -2.00260000      -0.24480000       0.42720000
H       -2.90980000      -1.02800000      -1.71410000
H       -1.49230000      -0.28420000      -2.50450000
H       -0.15680000      -2.29860000      -2.12830000
H       -0.02840000      -2.46850000       0.30840000
H       -1.79610000      -2.68990000       0.42600000
H       -3.06360000      -5.27310000      -2.92540000
