20
Properties=species:S:1:pos:R:3 gdb_23369=T pbc="F F F"
C       -0.14170000       1.53360000      -0.26170000
C       -0.22820000       0.01350000      -0.08790000
C        0.62420000      -0.46370000       1.10670000
C       -1.65230000      -0.48440000       0.06260000
N       -2.54330000       0.33920000       0.46560000
O       -3.81170000      -0.26060000       0.57390000
C       -1.95680000      -1.91820000      -0.22350000
C       -1.76480000      -2.49050000      -1.56980000
O       -0.84920000      -2.77550000      -0.51840000
H        0.90050000       1.83180000      -0.41290000
H       -0.72720000       1.87210000      -1.12090000
H       -0.52360000       2.05220000       0.62130000
H        0.18100000      -0.46920000      -0.98470000
H        1.66630000      -0.15620000       0.97280000
H        0.25590000      -0.02250000       2.03880000
H        0.60070000      -1.55150000       1.20220000
H       -4.34580000       0.46080000       0.92160000
H       -2.72280000      -2.36280000       0.40610000
H       -2.39370000      -3.32040000      -1.88740000
H       -1.37870000      -1.86070000      -2.36980000
