17
Properties=species:S:1:pos:R:3 gdb_67674=T pbc="F F F"
C       -0.04050000       1.54290000       0.02380000
C       -0.00890000       0.04470000      -0.04220000
C       -0.88400000      -0.87050000       0.83050000
O       -1.53590000      -1.97760000       0.26120000
C       -0.51850000      -2.87580000      -0.20130000
C        0.75590000      -2.02500000      -0.24390000
C        0.57090000      -1.04440000       0.94890000
C        0.55780000      -0.78240000      -1.14680000
O        0.93740000      -0.50860000      -2.25320000
H        0.92410000       1.96950000      -0.26840000
H       -0.80020000       1.94130000      -0.65670000
H       -0.27840000       1.89280000       1.03310000
H       -1.47550000      -0.36970000       1.58850000
H       -0.41460000      -3.72100000       0.49370000
H       -0.81130000      -3.25650000      -1.18430000
H        1.69020000      -2.56980000      -0.36680000
H        1.21570000      -0.90250000       1.80450000
