17
Properties=species:S:1:pos:R:3 gdb_85096=T pbc="F F F"
C       -0.32140000       1.42090000       0.05240000
C        0.02110000      -0.05540000      -0.03920000
N        1.23580000      -0.39120000      -0.81570000
C        1.98670000      -0.77210000       0.27570000
N        3.18890000      -1.02770000       0.56830000
C        0.76260000      -0.67980000       1.21190000
O        0.95780000       0.23660000       2.26420000
C        0.21890000      -1.95260000       1.66730000
C       -0.23750000      -3.00110000       2.03700000
H        0.52450000       1.99900000       0.42960000
H       -0.60710000       1.80420000      -0.93330000
H       -1.16670000       1.57220000       0.73010000
H       -0.84450000      -0.64320000      -0.35750000
H        1.56160000       0.04650000      -1.66590000
H        3.82040000      -0.91970000      -0.22640000
H        1.84450000       0.06560000       2.60760000
H       -0.62970000      -3.92920000       2.37290000
