21
Properties=species:S:1:pos:R:3 gdb_86631=T pbc="F F F"
C       -0.15430000       1.54810000      -0.07330000
C        0.07640000       0.03960000      -0.01640000
C        0.89510000      -0.53470000      -1.20200000
C        1.53390000      -1.76660000      -0.60340000
C        2.18250000      -2.81960000      -1.38600000
O        2.27740000      -2.81360000      -2.59430000
C        1.45630000      -1.75740000       0.73610000
C        0.79080000      -0.51010000       1.26430000
C        1.83170000       0.43180000       1.90250000
H        0.78870000       2.10420000      -0.07610000
H       -0.69690000       1.81840000      -0.98520000
H       -0.74760000       1.89760000       0.77860000
H       -0.90340000      -0.45350000      -0.04570000
H        0.27830000      -0.76310000      -2.07580000
H        1.66710000       0.16670000      -1.54760000
H        2.59580000      -3.65820000      -0.78070000
H        1.87400000      -2.52410000       1.38270000
H        0.05110000      -0.75440000       2.03730000
H        2.59850000       0.72980000       1.18030000
H        1.35710000       1.33760000       2.29080000
H        2.33770000      -0.06400000       2.73710000
