18
Properties=species:S:1:pos:R:3 gdb_114412=T pbc="F F F"
C        0.19600000       1.21630000       0.24490000
O       -0.21490000      -0.07020000      -0.17200000
C        0.50700000      -0.56380000      -1.26510000
C        1.92820000      -1.14640000      -0.94900000
N        1.41620000      -2.53080000      -1.21370000
C        0.07010000      -2.00650000      -1.64670000
C       -0.62530000      -2.87590000      -0.57950000
C        0.80980000      -3.18270000      -0.09560000
O        1.30570000      -3.66490000       0.87860000
H        1.24180000       1.22440000       0.58410000
H        0.08690000       1.95340000      -0.56490000
H       -0.44660000       1.50440000       1.07930000
H        0.49100000       0.15370000      -2.09850000
H        2.71000000      -0.85890000      -1.65640000
H        2.28660000      -1.00740000       0.07440000
H       -0.20670000      -2.16150000      -2.69030000
H       -1.22110000      -2.34460000       0.16330000
H       -1.18900000      -3.72590000      -0.97040000
