15
Properties=species:S:1:pos:R:3 gdb_66602=T pbc="F F F"
O        0.29360000       1.35580000      -0.16380000
C        0.15430000      -0.00850000      -0.12810000
C        1.20730000      -0.98290000      -0.57250000
C       -0.17280000      -0.96040000      -1.23160000
C       -0.70230000      -2.08240000      -0.29140000
N       -1.56690000      -1.54790000       0.81880000
C       -0.50430000      -0.85250000       1.07660000
N        0.55190000      -1.55110000       1.76910000
C        0.83750000      -2.14600000       0.38250000
H       -0.57330000       1.74210000      -0.33620000
H        2.17630000      -0.71140000      -0.97040000
H       -0.47130000      -0.71920000      -2.24230000
H       -1.13000000      -3.00930000      -0.66320000
H        1.33250000      -0.92050000       1.96710000
H        1.42220000      -3.06250000       0.43100000
