16
Properties=species:S:1:pos:R:3 gdb_79487=T pbc="F F F"
C        0.08140000       1.52330000      -0.16040000
N        0.03740000       0.06660000      -0.03930000
C       -1.11630000      -0.49280000       0.72470000
C       -0.28440000      -1.73220000       1.18600000
N       -0.57800000      -1.59510000       2.64440000
C       -0.53890000      -0.18110000       2.16390000
C        0.66930000      -0.49580000       1.19290000
C        2.07890000      -0.44110000       1.47420000
N        3.21190000      -0.37250000       1.69380000
H        1.08970000       1.82590000      -0.45750000
H       -0.60960000       1.83000000      -0.95110000
H       -0.18500000       2.06360000       0.76260000
H       -2.14710000      -0.45160000       0.37170000
H       -0.12160000      -2.67670000       0.67000000
H       -1.54150000      -1.87640000       2.84080000
H       -0.68150000       0.67210000       2.82580000
