15
Properties=species:S:1:pos:R:3 gdb_66760=T pbc="F F F"
O       -0.05760000       1.39190000      -0.04720000
C       -0.02830000       0.02010000      -0.07130000
C        0.92690000      -0.80690000       0.84270000
C        1.61520000      -1.51850000      -0.31090000
C        0.49530000      -2.21170000       0.39930000
N       -0.54440000      -1.95440000      -0.65640000
C        0.49480000      -0.95650000      -1.21980000
C       -1.30010000      -0.79960000      -0.11770000
N       -2.51960000      -0.57890000       0.05710000
H        0.82660000       1.72200000       0.14480000
H        1.27920000      -0.57320000       1.83870000
H        2.64410000      -1.80380000      -0.47710000
H        0.47930000      -3.08610000       1.03610000
H        0.48720000      -0.75410000      -2.28760000
H       -3.06500000      -1.41500000      -0.16930000
