21
Properties=species:S:1:pos:R:3 gdb_81136=T pbc="F F F"
C       -0.17150000       1.53320000      -0.01640000
C        0.00470000       0.02190000      -0.01040000
C        1.14440000      -0.59380000      -0.88310000
C        2.11740000      -0.27340000       0.28530000
C        0.86050000      -0.60450000       1.15920000
C        0.68690000      -2.11810000       0.86640000
C        0.90490000      -2.10240000      -0.68320000
C        0.72630000      -0.16070000       2.52180000
C        0.60280000       0.22250000       3.65610000
H        0.77420000       2.07720000       0.05270000
H       -0.66960000       1.85310000      -0.93800000
H       -0.79380000       1.84830000       0.82760000
H       -0.97510000      -0.45470000      -0.13600000
H        1.33420000      -0.24220000      -1.89770000
H        2.99370000      -0.91500000       0.41520000
H        2.41310000       0.77290000       0.34640000
H        1.42910000      -2.71880000       1.39800000
H       -0.30560000      -2.47180000       1.15660000
H        0.02940000      -2.46020000      -1.23260000
H        1.76450000      -2.70500000      -0.99010000
H        0.49860000       0.55710000       4.65830000
