19
Properties=species:S:1:pos:R:3 gdb_105875=T pbc="F F F"
C       -0.14660000       1.53690000      -0.02080000
C        0.15990000       0.05430000      -0.01640000
O        1.36780000      -0.33950000      -0.75880000
C        1.78320000      -1.17220000       0.33250000
C        2.13770000      -0.29500000       1.47780000
O        2.70550000       0.96140000       1.28420000
C        0.66730000      -0.65120000       1.24190000
C       -0.21250000      -1.30150000       2.26440000
O       -0.94520000      -0.34280000       3.01970000
H        0.66150000       2.11560000       0.42920000
H       -0.32180000       1.89070000      -1.04190000
H       -1.05760000       1.70770000       0.56220000
H       -0.68300000      -0.50770000      -0.44090000
H        2.15930000      -2.16280000       0.10000000
H        2.55850000      -0.80310000       2.34310000
H        2.70390000       1.10260000       0.32700000
H       -0.97050000      -1.92870000       1.78070000
H        0.38550000      -1.95940000       2.91560000
H       -0.30640000       0.25670000       3.42050000
