17
Properties=species:S:1:pos:R:3 gdb_57107=T pbc="F F F"
N        1.16980000       1.32950000      -0.35940000
C        0.10810000       0.50540000       0.20620000
C       -0.26240000      -0.66040000      -0.62590000
N       -0.51460000      -1.55320000      -1.31590000
C        0.55270000       0.03820000       1.60700000
O       -0.48110000      -0.69980000       2.20620000
C        0.10570000      -1.84900000       2.81240000
C        1.32360000      -2.10660000       1.92850000
O        1.70060000      -0.78490000       1.52990000
H        2.00720000       0.76240000      -0.46090000
H        0.91220000       1.65770000      -1.28420000
H       -0.78830000       1.12130000       0.34080000
H        0.81430000       0.93270000       2.19110000
H        0.39670000      -1.63370000       3.84990000
H       -0.62990000      -2.65550000       2.80030000
H        2.16590000      -2.55730000       2.45870000
H        1.06740000      -2.71570000       1.05440000
