16
Properties=species:S:1:pos:R:3 gdb_52263=T pbc="F F F"
O       -0.12130000       0.09800000       0.46900000
C        0.10440000       1.04060000      -0.24060000
C        1.34480000       1.90670000      -0.10690000
O        1.30880000       2.88340000      -1.13050000
C        2.42250000       3.71360000      -1.18500000
C        2.25550000       4.72330000      -2.33710000
N        1.98430000       6.01270000      -1.68370000
C        2.13710000       5.80250000      -0.44600000
O        2.48580000       4.55800000      -0.01160000
H       -0.58050000       1.35920000      -1.05660000
H        1.35700000       2.36730000       0.89000000
H        2.23840000       1.26790000      -0.18850000
H        3.34760000       3.12420000      -1.19490000
H        3.15700000       4.80230000      -2.95240000
H        1.42340000       4.42660000      -2.98080000
H        2.02840000       6.53900000       0.34190000
