16
Properties=species:S:1:pos:R:3 gdb_17397=T pbc="F F F"
C        0.04090000       1.51680000      -0.15730000
O        1.43760000       1.55030000       0.21500000
C        1.43760000       0.13940000       0.50360000
C        0.00200000      -0.01470000      -0.03260000
C       -1.08540000      -0.83520000       0.73640000
C       -1.30190000      -1.65620000      -0.54280000
O       -1.65790000      -0.73170000      -1.57810000
C       -0.26960000      -0.89290000      -1.26050000
H       -0.58700000       2.05360000       0.56630000
H       -0.13610000       1.92590000      -1.15860000
H        2.22530000      -0.39660000      -0.04190000
H        1.54910000      -0.06350000       1.57800000
H       -0.65330000      -1.41530000       1.55700000
H       -1.96040000      -0.28670000       1.09460000
H       -1.63500000      -2.68070000      -0.65700000
H        0.40170000      -1.16620000      -2.06760000
