16
Properties=species:S:1:pos:R:3 gdb_51218=T pbc="F F F"
N       -0.15490000       1.25670000       0.02790000
C       -0.13370000       0.01130000       0.21170000
O       -1.07410000      -0.76820000      -0.38550000
C       -0.93230000      -2.13440000      -0.22330000
C       -0.12040000      -3.10790000      -1.07570000
C       -0.94520000      -4.19120000      -0.32990000
O       -0.47090000      -4.11290000       1.04900000
C       -1.15830000      -2.86900000       1.12060000
C       -2.06720000      -3.12340000      -0.03770000
H        0.60040000       1.69790000       0.54870000
H        0.57150000      -0.56160000       0.82610000
H       -0.40440000      -3.03770000      -2.12830000
H        0.96660000      -3.15510000      -0.96130000
H       -1.06280000      -5.20610000      -0.69990000
H       -1.30870000      -2.38290000       2.07560000
H       -3.13460000      -3.06490000      -0.19350000
