18
Properties=species:S:1:pos:R:3 gdb_33415=T pbc="F F F"
N       -0.30660000      -0.92060000       0.70170000
C       -0.18050000       0.18810000       0.39880000
C       -0.06640000       1.60180000      -0.03590000
C        1.38670000       1.95140000      -0.32050000
C        1.86530000       3.32020000      -0.02530000
N        2.32730000       2.17680000       0.78180000
N       -0.89520000       1.94660000      -1.19030000
C       -1.07840000       0.96570000      -2.25950000
C       -2.20480000       1.31850000      -1.35180000
H       -0.41330000       2.22010000       0.80300000
H        1.81180000       1.40750000      -1.16040000
H        2.62590000       3.77530000      -0.65210000
H        1.15530000       4.02040000       0.40740000
H        1.84340000       2.15410000       1.67690000
H       -1.02750000       1.36950000      -3.26580000
H       -0.64540000      -0.02450000      -2.13510000
H       -2.50760000       0.55980000      -0.63360000
H       -2.99440000       1.98700000      -1.68050000
