22
Properties=species:S:1:pos:R:3 gdb_59967=T pbc="F F F"
C        1.19850000      -0.21850000      -0.75830000
C        0.07920000       0.33600000       0.12500000
N       -0.88550000       1.07440000      -0.72080000
H       -2.22730000      -0.00710000      -1.03320000
H       -1.40950000       1.74140000      -0.16010000
H       -0.40230000       1.60980000      -1.43560000
C       -0.65230000      -0.74660000       0.94510000
C       -1.32020000      -1.91540000       0.16340000
C       -1.19490000      -3.23450000       0.93310000
C       -2.79810000      -1.64870000      -0.17980000
O       -3.68730000      -2.39000000       0.15740000
O       -3.04960000      -0.55150000      -0.90150000
H        1.77250000       0.59810000      -1.20980000
H        1.89120000      -0.82530000      -0.16870000
H        0.80610000      -0.83720000      -1.57060000
H        0.54600000       1.01570000       0.85440000
H        0.08930000      -1.17640000       1.62780000
H       -1.39680000      -0.26000000       1.58830000
H       -0.80470000      -2.02930000      -0.79900000
H       -1.68760000      -4.04680000       0.39620000
H       -0.14090000      -3.49280000       1.07880000
H       -1.67250000      -3.15850000       1.91420000
