23
Properties=species:S:1:pos:R:3 gdb_122446=T pbc="F F F"
C        0.35750000       1.48440000       0.04880000
C       -0.02610000       0.02070000      -0.08970000
O        0.68110000      -0.52930000      -1.18050000
C        0.39920000      -1.89810000      -1.39300000
C        1.15730000      -2.35600000      -2.60920000
C        2.61440000      -2.77430000      -2.51930000
C        1.54500000      -3.78660000      -2.85600000
C        1.20950000      -4.91090000      -1.90100000
O        1.41750000      -4.15070000      -4.21040000
H        1.43230000       1.58380000       0.22470000
H        0.10870000       2.03360000      -0.86380000
H       -0.17650000       1.94220000       0.88700000
H        0.21230000      -0.53030000       0.83710000
H       -1.11380000      -0.08120000      -0.24880000
H        0.68320000      -2.48460000      -0.50330000
H       -0.68580000      -2.04270000      -1.53820000
H        0.89090000      -1.82040000      -3.51520000
H        3.27630000      -2.45820000      -3.31760000
H        3.06840000      -2.81220000      -1.53370000
H        1.29820000      -4.60480000      -0.85570000
H        0.19140000      -5.27440000      -2.07400000
H        1.89600000      -5.75330000      -2.05340000
H        2.10000000      -4.80410000      -4.40190000
