20
Properties=species:S:1:pos:R:3 gdb_119127=T pbc="F F F"
C       -0.55950000       1.71720000       0.09450000
O       -0.32190000       0.36650000      -0.22710000
C       -1.30900000      -0.50230000       0.29310000
C       -0.86120000      -1.91850000       0.02470000
C       -1.86770000      -2.88330000      -0.52760000
N       -0.78450000      -2.38790000      -1.37000000
C        0.20750000      -2.43790000       0.96490000
C        1.12800000      -3.52410000       0.45210000
O        0.30070000      -1.98290000       2.08350000
H        0.25090000       2.30410000      -0.34400000
H       -1.51820000       2.07320000      -0.31640000
H       -0.57080000       1.88020000       1.18290000
H       -1.42330000      -0.35900000       1.37630000
H       -2.28290000      -0.30670000      -0.18780000
H       -1.80780000      -3.93660000      -0.26820000
H       -2.87860000      -2.51150000      -0.67390000
H       -1.10450000      -1.64820000      -1.99030000
H        1.74340000      -3.12090000      -0.35860000
H        1.76110000      -3.87180000       1.26890000
H        0.56990000      -4.35990000       0.02050000
