20
Properties=species:S:1:pos:R:3 gdb_61612=T pbc="F F F"
C        1.58210000       1.33300000       0.10540000
C        0.43570000       0.40390000      -0.28960000
O        0.95420000      -0.58380000      -1.15760000
C       -0.01690000      -1.40260000      -1.75290000
C       -0.77820000      -0.88130000      -2.94820000
C        0.29690000      -1.94020000      -3.11560000
C        1.60040000      -1.60810000      -3.80750000
C       -0.18550000      -0.21180000       0.90760000
N       -0.67380000      -0.69890000       1.83480000
H        2.37050000       0.76580000       0.60500000
H        1.99380000       1.79350000      -0.79550000
H        1.22620000       2.11600000       0.77900000
H       -0.35420000       0.97540000      -0.80010000
H       -0.53910000      -2.04540000      -1.04630000
H       -1.82190000      -1.15100000      -3.06530000
H       -0.52660000       0.11870000      -3.28830000
H       -0.06370000      -2.94970000      -3.29400000
H        1.94210000      -0.60490000      -3.54290000
H        2.38820000      -2.31230000      -3.51970000
H        1.48590000      -1.65740000      -4.89530000
