16
Properties=species:S:1:pos:R:3 gdb_96814=T pbc="F F F"
C       -0.07230000       1.42950000      -0.03350000
N       -0.01320000      -0.02300000      -0.07560000
C        0.58910000      -0.61430000      -0.99590000
O        1.26170000      -0.02740000      -2.05680000
C        1.81840000      -1.00590000      -2.85290000
O        2.45530000      -0.78260000      -3.82740000
O        1.53070000      -2.22380000      -2.35600000
C        0.72920000      -2.11200000      -1.16340000
C        1.39510000      -2.81080000       0.01110000
H        0.46210000       1.92520000      -0.85050000
H       -1.12280000       1.73790000      -0.05480000
H        0.33990000       1.76930000       0.92220000
H       -0.24640000      -2.56130000      -1.37730000
H        2.38680000      -2.39040000       0.19860000
H        0.77970000      -2.66790000       0.90250000
H        1.49510000      -3.87990000      -0.18980000
