11
Properties=species:S:1:pos:R:3 gdb_131250=T pbc="F F F"
O        0.07360000       1.32120000      -0.07560000
C        0.06300000      -0.01090000      -0.05840000
C       -0.01130000      -0.73020000      -1.26740000
N       -0.02140000      -2.04390000      -1.24080000
C        0.04250000      -2.59960000      -0.01510000
N        0.11380000      -1.95140000       1.14720000
N        0.12370000      -0.62630000       1.11650000
C        0.03480000      -4.03750000       0.05830000
N        0.02810000      -5.19200000       0.10760000
H        0.12800000       1.62110000       0.84560000
H       -0.06080000      -0.22100000      -2.22560000
