21
Properties=species:S:1:pos:R:3 gdb_117232=T pbc="F F F"
C       -0.08410000       1.54610000      -0.23750000
C        0.04520000       0.04300000      -0.07690000
O       -1.28200000      -0.50220000      -0.01720000
C       -1.37440000      -1.84060000       0.10840000
N       -0.35770000      -2.59580000       0.17860000
C       -2.81420000      -2.24860000       0.16080000
N       -3.06520000      -3.68500000       0.31220000
C       -3.44800000      -2.78720000       1.40850000
C       -2.71870000      -2.93660000       2.72010000
H        0.90950000       2.00170000      -0.28640000
H       -0.62330000       1.79650000      -1.15570000
H       -0.62310000       1.98490000       0.60720000
H        0.58220000      -0.41670000      -0.91320000
H        0.58410000      -0.22840000       0.83710000
H       -0.68200000      -3.56170000       0.24310000
H       -3.45940000      -1.66430000      -0.49090000
H       -3.86890000      -3.97090000      -0.23860000
H       -4.50980000      -2.56170000       1.50430000
H       -1.64730000      -3.07470000       2.56070000
H       -2.86440000      -2.04670000       3.34150000
H       -3.09960000      -3.80200000       3.27240000
