11
Properties=species:S:1:pos:R:3 gdb_878=T pbc="F F F"
N       -0.05660000       1.37980000       0.07110000
C       -0.10700000      -0.00150000      -0.00780000
C       -1.10900000      -0.89700000      -0.13390000
N       -0.60480000      -2.19870000      -0.16570000
C        0.67130000      -2.01660000      -0.05710000
O        1.63190000      -2.93990000      -0.03300000
O        1.09060000      -0.75440000       0.04390000
H        0.45560000       1.80650000      -0.69380000
H        0.32950000       1.71730000       0.94670000
H       -2.16510000      -0.69210000      -0.20440000
H        1.18940000      -3.79500000      -0.11360000
