19
Properties=species:S:1:pos:R:3 gdb_51546=T pbc="F F F"
O       -0.54980000       1.30780000       1.17130000
C       -0.14710000       1.30340000       0.03720000
C        1.28880000       1.55860000      -0.37350000
C        1.38400000       2.71750000      -1.35080000
C        1.35820000       4.16050000      -0.85150000
C        2.60820000       3.57630000      -1.42200000
C        3.98930000       3.38800000      -0.80210000
C        4.49220000       3.86580000      -2.18190000
O        3.13860000       4.00930000      -2.67420000
H       -0.83990000       1.11610000      -0.81680000
H        1.87470000       1.74450000       0.53170000
H        1.67310000       0.64330000      -0.84730000
H        0.89910000       2.55550000      -2.31060000
H        0.82890000       4.89100000      -1.45380000
H        1.31150000       4.33120000       0.22030000
H        4.22010000       4.04750000       0.03620000
H        4.25070000       2.36120000      -0.53800000
H        5.02760000       4.82150000      -2.18790000
H        5.05860000       3.13040000      -2.76390000
