17
Properties=species:S:1:pos:R:3 gdb_6675=T pbc="F F F"
N       -0.03500000       1.34730000       0.16410000
C        0.05410000       0.03340000      -0.19240000
O        1.08440000      -0.46070000      -0.60720000
C       -1.24580000      -0.76100000      -0.05310000
C       -0.98170000      -2.25190000       0.16680000
C       -2.26560000      -3.09520000       0.12300000
C       -1.97040000      -4.57250000       0.25410000
O       -2.46730000      -5.30790000       1.06730000
H        0.77340000       1.93360000       0.03570000
H       -0.88940000       1.76290000       0.48960000
H       -1.86450000      -0.34820000       0.75280000
H       -1.81460000      -0.61660000      -0.98230000
H       -0.27320000      -2.59000000      -0.59590000
H       -0.48070000      -2.39380000       1.13140000
H       -2.97330000      -2.81210000       0.90830000
H       -2.76120000      -2.94630000      -0.84840000
H       -1.22470000      -4.95430000      -0.48310000
