16
Properties=species:S:1:pos:R:3 gdb_26957=T pbc="F F F"
N        0.12370000       1.44400000       0.38500000
C       -0.01840000       0.08500000       0.10330000
C       -1.12520000      -0.65860000      -0.18450000
C       -0.65970000      -2.00410000      -0.38700000
C        0.68090000      -1.97540000      -0.19340000
O        1.09810000      -0.70880000       0.09360000
C       -2.51020000      -0.16300000      -0.24080000
C       -3.46730000      -0.58560000      -1.27980000
O       -3.54780000      -1.11650000       0.04030000
H        0.86820000       1.60890000       1.05370000
H        0.31100000       2.00320000      -0.44150000
H       -1.26750000      -2.86840000      -0.60240000
H        1.44930000      -2.73060000      -0.19800000
H       -2.65910000       0.81570000       0.21430000
H       -4.27880000       0.08140000      -1.57000000
H       -3.14110000      -1.28540000      -2.04830000
