14
Properties=species:S:1:pos:R:3 gdb_436=T pbc="F F F"
O       -0.10330000       1.41970000       0.11000000
C        0.00900000       0.00200000       0.04680000
C        0.18550000      -0.56720000       1.47080000
C       -1.34450000      -0.83730000       1.54120000
C       -1.40820000      -0.66000000      -0.00420000
O       -2.43490000       0.10920000      -0.56760000
H       -0.22220000       1.73680000      -0.79180000
H        0.73970000      -0.29700000      -0.71450000
H        0.78330000      -1.48170000       1.47370000
H        0.60420000       0.13410000       2.19470000
H       -1.67840000      -1.79270000       1.95120000
H       -1.88030000      -0.03120000       2.05000000
H       -1.39870000      -1.61820000      -0.53150000
H       -2.32880000       0.99300000      -0.19210000
