16
Properties=species:S:1:pos:R:3 gdb_131385=T pbc="F F F"
O       -1.08290000       0.85980000       0.35230000
C       -0.37000000      -0.28010000       0.18460000
N        0.01120000      -0.69360000      -1.01090000
N        0.67290000      -1.84890000      -0.75240000
C        0.69970000      -2.15250000       0.56560000
C        0.02980000      -1.14580000       1.23640000
C       -0.21540000      -1.03040000       2.68710000
C       -0.23710000       0.28970000       3.37830000
N       -1.48320000      -0.47310000       3.20900000
H       -1.23510000       1.23520000      -0.52430000
H        1.06260000      -2.36820000      -1.51830000
H        1.18410000      -3.04270000       0.93580000
H        0.13430000      -1.88700000       3.25890000
H        0.12240000       0.36460000       4.40120000
H       -0.08900000       1.17690000       2.77040000
H       -2.00800000      -0.07130000       2.43510000
