12
Properties=species:S:1:pos:R:3 gdb_11682=T pbc="F F F"
N       -0.03250000       1.18040000      -0.06070000
C       -0.05750000      -0.06400000       0.02420000
O        0.98870000      -0.98860000       0.17680000
C        0.05090000      -2.08190000       0.01480000
C       -0.94040000      -2.06080000       1.13340000
C       -1.12350000      -1.11070000      -0.04350000
C        0.41100000      -3.18590000      -0.80830000
N        0.69040000      -4.09530000      -1.46580000
H        0.91640000       1.55050000       0.00860000
H       -1.64700000      -2.88390000       1.15710000
H       -0.61330000      -1.68770000       2.09810000
H       -1.99800000      -1.10900000      -0.67640000
