17
Properties=species:S:1:pos:R:3 gdb_11436=T pbc="F F F"
O        0.19910000       1.14280000       0.49820000
C       -0.00550000      -0.21660000       0.18460000
C       -1.45490000      -0.49190000      -0.20940000
C       -1.79520000      -1.98070000      -0.39230000
C       -2.31820000      -2.38720000       0.99390000
C       -2.82530000      -1.08700000       1.57900000
N       -3.60060000      -0.97050000       2.56680000
O       -2.31060000      -0.03360000       0.86650000
H       -0.48080000       1.37870000       1.14050000
H        0.65110000      -0.45420000      -0.65970000
H        0.27870000      -0.87620000       1.02250000
H       -1.70870000       0.11740000      -1.08140000
H       -2.57570000      -2.09730000      -1.14870000
H       -0.92810000      -2.56170000      -0.71580000
H       -3.10850000      -3.13780000       0.97510000
H       -1.51710000      -2.77350000       1.63290000
H       -3.78100000       0.01410000       2.77030000
