18
Properties=species:S:1:pos:R:3 gdb_40706=T pbc="F F F"
C       -0.24790000       1.36330000      -0.13960000
O        1.02830000       0.72380000      -0.14940000
C       -0.14240000      -0.09910000      -0.05640000
C       -0.32010000      -0.80040000       1.25050000
N       -1.45350000      -1.73600000       1.35190000
C       -0.09110000      -2.26330000       1.45020000
C        0.37070000      -3.21600000       0.38760000
C       -0.54770000      -4.18470000      -0.22960000
O       -0.10150000      -3.02950000      -0.94270000
H       -0.47540000       1.94050000       0.75670000
H       -0.54840000       1.82890000      -1.07720000
H       -0.36190000      -0.69440000      -0.93740000
H       -0.10420000      -0.16920000       2.11210000
H       -1.89030000      -1.67860000       2.26680000
H        0.27550000      -2.54350000       2.43830000
H        1.42850000      -3.47620000       0.45220000
H       -0.16700000      -5.13550000      -0.59880000
H       -1.59570000      -4.16410000       0.06100000
