22
Properties=species:S:1:pos:R:3 gdb_58087=T pbc="F F F"
C        0.10880000       1.55490000      -0.15060000
C       -0.02720000       0.03650000       0.06090000
C        0.78000000      -0.38360000       1.29970000
C       -1.51690000      -0.45700000       0.10800000
C       -2.27240000       0.01200000       1.35780000
N       -2.17930000      -0.05500000      -1.15510000
H       -1.68530000      -1.76590000      -1.73110000
H       -3.18880000      -0.11330000      -1.05090000
H       -1.96750000       0.90770000      -1.38850000
C       -1.47390000      -2.01110000       0.09120000
O       -1.37660000      -2.68940000       1.08070000
O       -1.51660000      -2.53490000      -1.14120000
H        1.16920000       1.82540000      -0.15340000
H       -0.29940000       1.90140000      -1.10560000
H       -0.36800000       2.12470000       0.65350000
H        0.41720000      -0.45510000      -0.81460000
H        1.84170000      -0.17620000       1.13410000
H        0.47110000       0.18220000       2.18500000
H        0.66620000      -1.44510000       1.52400000
H       -2.25720000       1.10220000       1.44320000
H       -3.31870000      -0.30830000       1.30750000
H       -1.84500000      -0.42510000       2.26080000
