20
Properties=species:S:1:pos:R:3 gdb_90723=T pbc="F F F"
C       -0.34770000       1.24660000      -0.27320000
C        0.30330000      -0.10910000      -0.08890000
O        1.67180000      -0.11710000      -0.59260000
C        2.19160000      -0.47170000       0.70020000
C        0.77290000      -0.47750000       1.33830000
C        0.90000000      -1.99770000       1.62990000
C        2.27640000      -1.98530000       0.94220000
C        2.93480000      -2.97140000       0.06380000
N        3.43240000      -2.73120000       1.43470000
H        0.21990000       2.02530000       0.24600000
H       -0.39170000       1.50580000      -1.33560000
H       -1.36980000       1.23660000       0.12180000
H       -0.29330000      -0.89150000      -0.57830000
H        3.04220000       0.15030000       0.99900000
H        0.45920000       0.18210000       2.14630000
H        0.97780000      -2.22820000       2.69560000
H        0.13180000      -2.63700000       1.18480000
H        2.48280000      -3.94800000      -0.08890000
H        3.50420000      -2.59480000      -0.78210000
H        4.26470000      -2.14520000       1.40410000
