13
Properties=species:S:1:pos:R:3 gdb_61353=T pbc="F F F"
C       -0.01840000       1.56960000       0.03380000
C        0.01430000       0.04240000       0.00470000
O        0.75830000      -0.46740000       1.14570000
C        2.06990000      -0.64900000       0.94580000
O        2.68120000      -0.43240000      -0.06320000
C        2.69020000      -1.16480000       2.16840000
N        3.23240000      -1.56670000       3.10520000
C       -1.32470000      -0.54790000       0.09170000
N       -2.39310000      -0.98370000       0.12370000
H        0.99740000       1.95520000      -0.07350000
H       -0.62430000       1.93920000      -0.79720000
H       -0.45040000       1.92440000       0.97170000
H        0.50570000      -0.31180000      -0.90570000
