16
Properties=species:S:1:pos:R:3 gdb_125551=T pbc="F F F"
C       -0.11650000       1.40750000      -0.01850000
C       -0.00440000      -0.07830000       0.00200000
N       -0.13480000      -0.81110000      -1.09870000
N       -0.00470000      -2.07450000      -0.59080000
C        0.21020000      -3.39560000      -1.12790000
C        0.26480000      -4.18110000       0.22230000
O        0.48620000      -3.20300000       1.27900000
C        0.23920000      -2.00680000       0.72340000
N        0.23480000      -0.78070000       1.17260000
H        0.78760000       1.86700000       0.39310000
H       -0.26350000       1.75740000      -1.04160000
H       -0.95830000       1.74160000       0.59670000
H       -0.61050000      -3.73380000      -1.76500000
H        1.14710000      -3.45440000      -1.69390000
H       -0.68500000      -4.68410000       0.42470000
H        1.07710000      -4.90700000       0.26430000
