20
Properties=species:S:1:pos:R:3 gdb_13731=T pbc="F F F"
O       -0.08720000       1.41270000      -0.35670000
C       -0.00410000       0.06150000       0.07420000
C       -1.38390000      -0.56650000      -0.06740000
C       -1.41420000      -2.03550000       0.36950000
C       -2.78990000      -2.65630000       0.24220000
C       -3.27330000      -3.18330000      -1.09760000
C       -2.95740000      -4.13290000       0.03200000
O       -1.78960000      -4.90350000      -0.01920000
H        0.78270000       1.81120000      -0.26270000
H        0.72500000      -0.50480000      -0.52900000
H        0.32750000      -0.00140000       1.12400000
H       -2.09490000       0.02180000       0.52600000
H       -1.70360000      -0.47810000      -1.11240000
H       -0.70210000      -2.62180000      -0.22070000
H       -1.07980000      -2.11590000       1.41290000
H       -3.55040000      -2.19080000       0.86500000
H       -4.30660000      -3.03410000      -1.39180000
H       -2.55900000      -3.15560000      -1.91490000
H       -3.79530000      -4.61820000       0.53310000
H       -1.91140000      -5.57900000      -0.69400000
