20
Properties=species:S:1:pos:R:3 gdb_70451=T pbc="F F F"
O        0.10870000       1.30100000       0.76660000
C        0.07590000      -0.02960000       0.36880000
C        0.05960000      -0.42370000      -1.08600000
C       -1.10440000      -0.81250000      -0.21300000
C       -0.71610000      -2.04660000       0.60910000
C        0.37740000      -1.19270000       1.33180000
N        1.69020000      -1.77940000       1.54720000
C        2.79880000      -1.43670000       0.66190000
C        2.73900000      -0.89830000       2.04880000
H        0.84920000       1.73340000       0.32970000
H       -0.13090000       0.41200000      -1.75310000
H        0.72100000      -1.18470000      -1.49390000
H       -2.10990000      -0.46410000      -0.40910000
H       -1.48770000      -2.41800000       1.28560000
H       -0.32570000      -2.88320000       0.02200000
H       -0.00350000      -0.90440000       2.31700000
H        3.47220000      -2.25340000       0.41560000
H        2.62370000      -0.73150000      -0.14560000
H        2.50440000       0.15920000       2.15940000
H        3.37100000      -1.30940000       2.83180000
