20
Properties=species:S:1:pos:R:3 gdb_105647=T pbc="F F F"
C        0.04260000       1.40800000       0.12060000
O       -0.02800000      -0.00270000      -0.01530000
C        0.61760000      -0.53920000      -1.14580000
C        2.17600000      -0.58290000      -1.01430000
C        2.05040000      -2.01600000      -0.43750000
C        0.61920000      -2.10400000      -1.03630000
C       -0.49710000      -2.77700000      -0.25750000
C        0.07400000       0.02460000      -2.39200000
N       -0.34180000       0.45910000      -3.37970000
H        1.07910000       1.76290000       0.19720000
H       -0.44380000       1.91790000      -0.72080000
H       -0.48490000       1.65380000       1.04410000
H        2.66280000      -0.56080000      -1.99160000
H        2.61530000       0.18900000      -0.38000000
H        2.77680000      -2.75580000      -0.77800000
H        2.03050000      -2.01520000       0.65500000
H        0.67460000      -2.50910000      -2.05140000
H       -0.60020000      -2.33860000       0.73740000
H       -1.45780000      -2.67900000      -0.77300000
H       -0.28300000      -3.84530000      -0.14630000
