20
Properties=species:S:1:pos:R:3 gdb_65044=T pbc="F F F"
C       -0.01160000       1.32590000       0.69820000
C        0.00740000      -0.03900000       0.03180000
C        0.97770000      -0.24250000      -1.10650000
C        1.22690000      -0.90560000       0.22790000
C       -1.35370000      -0.71510000       0.00890000
C       -2.30810000      -0.38320000      -1.09620000
N       -1.71420000      -1.72060000      -1.01610000
C       -1.88580000      -1.00180000       1.32360000
C       -2.30860000      -1.21400000       2.42880000
H        0.99510000       1.75250000       0.74060000
H       -0.65170000       2.02490000       0.14810000
H       -0.39350000       1.25370000       1.72100000
H        0.71550000      -0.87450000      -1.94920000
H        1.59260000       0.60650000      -1.38600000
H        2.03000000      -0.53020000       0.85290000
H        1.07850000      -1.97850000       0.28750000
H       -3.37370000      -0.33990000      -0.89430000
H       -1.94900000       0.30490000      -1.85780000
H       -0.96250000      -1.80910000      -1.69450000
H       -2.69110000      -1.41510000       3.39870000
