13
Properties=species:S:1:pos:R:3 gdb_129379=T pbc="F F F"
N       -0.07440000       1.30330000       0.31900000
C        0.08030000      -0.02170000       0.05010000
N        1.23190000      -0.53650000      -0.17620000
C       -1.21080000      -0.78700000       0.06550000
C       -1.29170000      -2.17990000       0.10420000
N       -2.46570000      -2.78750000       0.07450000
N       -3.56850000      -2.03910000       0.00740000
N       -3.50680000      -0.72920000       0.01280000
N       -2.34240000      -0.08900000       0.04660000
H        0.72180000       1.89780000       0.15860000
H       -0.99890000       1.69780000       0.25880000
H        1.18090000      -1.53810000      -0.34000000
H       -0.41910000      -2.82190000       0.17480000
