19
Properties=species:S:1:pos:R:3 gdb_40611=T pbc="F F F"
C       -0.16250000       1.64910000       0.10730000
N        1.14670000       1.00880000      -0.06920000
C       -0.06810000       0.17490000      -0.06670000
C       -0.29790000      -0.73790000       1.11240000
C       -0.38300000      -2.21720000       1.18170000
C        0.64910000      -3.05580000       0.40640000
C        1.63640000      -2.23670000      -0.38020000
C        1.71110000      -2.25010000       1.11890000
N        0.69580000      -1.47360000       1.93550000
H       -0.33420000       2.05670000       1.10060000
H       -0.58070000       2.23870000      -0.70460000
H        1.47770000       1.14240000      -1.02140000
H       -0.41570000      -0.20740000      -1.02420000
H       -0.99660000      -0.28850000       1.81940000
H       -1.18800000      -2.70420000       1.72590000
H        0.55360000      -4.12800000       0.30100000
H        2.41760000      -2.84430000      -0.83040000
H        1.37500000      -1.37220000      -0.96940000
H        2.59640000      -2.56450000       1.65570000
