20
Properties=species:S:1:pos:R:3 gdb_109600=T pbc="F F F"
C       -0.59540000       1.25560000      -1.77710000
C       -0.25750000      -0.04220000      -1.07290000
C        1.14520000      -0.54240000      -0.85230000
C        2.38880000       0.19720000      -1.29470000
O        3.54800000      -0.24530000      -0.60910000
C        0.30890000      -0.07500000       0.35120000
C        0.62550000       1.20250000       1.11870000
C       -0.19830000      -1.12860000       1.19710000
N       -0.60360000      -1.96780000       1.88360000
H        0.12720000       2.05150000      -1.58750000
H       -0.62900000       1.09540000      -2.85980000
H       -1.58060000       1.61750000      -1.46590000
H       -0.98110000      -0.82870000      -1.26750000
H        1.27140000      -1.61960000      -0.91450000
H        2.57430000      -0.01760000      -2.35300000
H        2.26530000       1.28550000      -1.21040000
H        3.40400000      -0.11210000       0.33340000
H        1.03460000       1.97880000       0.47130000
H       -0.27850000       1.60070000       1.58850000
H        1.35150000       1.00670000       1.91420000
