15
Properties=species:S:1:pos:R:3 gdb_64605=T pbc="F F F"
C        0.00130000       1.61950000      -0.02750000
C        0.06020000       0.09600000      -0.06410000
C       -1.34590000      -0.51900000      -0.20930000
O       -2.36460000       0.10280000      -0.10270000
N        0.87270000      -0.43110000      -1.17580000
C        1.73880000      -1.20960000      -0.65030000
N        1.69440000      -1.32630000       0.73200000
C        0.69580000      -0.48900000       1.22520000
O        0.41970000      -0.29180000       2.37920000
H        1.00800000       2.03920000       0.03830000
H       -0.48080000       1.99410000      -0.93210000
H       -0.57780000       1.93810000       0.84130000
H       -1.33440000      -1.60630000      -0.43670000
H        2.48570000      -1.76050000      -1.21290000
H        2.34780000      -1.82420000       1.31600000
