18
Properties=species:S:1:pos:R:3 gdb_7785=T pbc="F F F"
C        0.01400000       1.49840000       0.10160000
C       -0.03480000      -0.00760000      -0.10550000
C        0.79670000      -0.49630000      -1.28500000
C        0.80840000      -2.02390000      -1.30910000
C        1.40560000      -2.53750000       0.00300000
C        0.90490000      -1.84230000       1.26320000
O        1.02200000      -2.32680000       2.35620000
O        0.38060000      -0.59720000       1.15170000
H        1.04430000       1.83120000       0.26040000
H       -0.38840000       2.01470000      -0.77540000
H       -0.57710000       1.78250000       0.97550000
H       -1.07830000      -0.31790000      -0.26120000
H        0.37120000      -0.08510000      -2.20640000
H        1.82060000      -0.10930000      -1.19850000
H       -0.21760000      -2.39500000      -1.42770000
H        1.38090000      -2.40530000      -2.16000000
H        1.25120000      -3.60890000       0.14860000
H        2.49300000      -2.38290000       0.00000000
