16
Properties=species:S:1:pos:R:3 gdb_60677=T pbc="F F F"
O        0.10680000       1.49100000       0.03770000
C        0.11790000       0.06730000      -0.06480000
C       -1.37630000      -0.35750000      -0.11960000
O       -1.79730000      -1.39610000       0.30170000
C        0.72700000      -0.36880000      -1.31980000
C        1.21470000      -0.70660000      -2.36590000
C        0.80700000      -0.57560000       1.14170000
C        2.07480000      -0.01170000       1.65080000
N        0.82360000       0.13940000       2.41770000
H        0.76350000       1.84640000      -0.56910000
H       -2.01320000       0.41290000      -0.60280000
H        1.65370000      -1.01570000      -3.28310000
H        0.60980000      -1.64040000       1.21330000
H        2.81800000      -0.66510000       2.09770000
H        2.47900000       0.86550000       1.15200000
H        0.46730000       1.08140000       2.26470000
