20
Properties=species:S:1:pos:R:3 gdb_97435=T pbc="F F F"
C        0.01140000       1.38710000       0.00220000
N       -0.11890000      -0.05380000       0.04850000
C        0.54850000      -0.66720000       0.91890000
O        0.48620000      -2.01190000       1.01180000
C        1.23120000      -2.60500000       2.07350000
C        1.19560000      -4.12720000       1.87080000
C        1.85500000      -4.54390000       0.54210000
C        1.82200000      -4.78120000       3.01750000
C        2.35910000      -5.30120000       3.95870000
H        0.69580000       1.80150000       0.76100000
H        0.37100000       1.69230000      -0.98710000
H       -0.97280000       1.84970000       0.13840000
H        1.22040000      -0.19070000       1.65050000
H        2.27000000      -2.24890000       2.06150000
H        0.78620000      -2.34310000       3.04120000
H        0.13670000      -4.41630000       1.83740000
H        1.36920000      -4.03030000      -0.29000000
H        2.91850000      -4.28550000       0.54350000
H        1.76870000      -5.62280000       0.39360000
H        2.82240000      -5.77310000       4.78960000
