15
Properties=species:S:1:pos:R:3 gdb_78133=T pbc="F F F"
O       -0.60390000       1.41840000       0.07220000
C       -0.27190000       0.07420000      -0.00520000
C       -1.36100000      -0.94770000      -0.01330000
C       -0.47430000      -0.76720000      -1.26170000
C       -1.71200000      -0.28930000      -1.97290000
N       -1.94530000       0.11790000      -3.13680000
N       -2.50270000      -0.46510000      -0.79210000
C       -3.59800000       0.25830000      -0.38430000
O       -4.32280000       0.85950000      -1.14220000
H       -0.12820000       1.89770000      -0.61490000
H        0.61210000      -0.22150000       0.56300000
H       -1.45420000      -1.79230000       0.65610000
H        0.29280000      -1.40860000      -1.67070000
H       -2.92480000       0.39270000      -3.22890000
H       -3.76250000       0.19400000       0.70860000
