20
Properties=species:S:1:pos:R:3 gdb_95788=T pbc="F F F"
C       -0.03150000       1.51470000      -0.03860000
C        0.03740000      -0.00630000      -0.01410000
O        0.69220000      -0.43350000      -1.20030000
C        0.98630000      -1.81110000      -1.16210000
C        2.02470000      -2.08650000      -0.08650000
N        1.60660000      -1.51430000       1.18550000
C        2.31250000      -1.96350000       2.37330000
C        0.69330000      -0.50080000       1.28880000
O        0.36090000      -0.00920000       2.35570000
H        0.97570000       1.93800000      -0.09060000
H       -0.59330000       1.84620000      -0.91520000
H       -0.51750000       1.87250000       0.86930000
H       -0.98810000      -0.41700000       0.00230000
H        0.07410000      -2.40030000      -0.96960000
H        1.37380000      -2.09030000      -2.14570000
H        2.15590000      -3.16960000       0.03820000
H        2.99750000      -1.67190000      -0.39060000
H        3.38660000      -1.75240000       2.29160000
H        1.90300000      -1.43460000       3.23250000
H        2.18430000      -3.04390000       2.51020000
