21
Properties=species:S:1:pos:R:3 gdb_112410=T pbc="F F F"
C        0.26310000       1.56990000      -0.27570000
C       -0.01480000       0.09390000       0.04680000
C        0.49450000      -0.83100000      -1.07480000
C        1.94420000      -1.16370000      -0.69990000
O        2.77310000      -1.63080000      -1.43720000
C        2.14990000      -0.79810000       0.77330000
C        0.74650000      -0.44560000       1.29470000
C        0.73270000       0.45950000       2.51620000
O        1.33280000      -0.25950000       3.58520000
H        1.33110000       1.76500000      -0.42510000
H       -0.25120000       1.85730000      -1.19840000
H       -0.08960000       2.23500000       0.51820000
H       -1.09340000      -0.02560000       0.19300000
H       -0.05900000      -1.77970000      -1.08110000
H        0.43090000      -0.41460000      -2.08330000
H        2.64430000      -1.60520000       1.31690000
H        2.82590000       0.06650000       0.81610000
H        0.25450000      -1.38020000       1.59500000
H        1.28610000       1.38840000       2.30770000
H       -0.30540000       0.74160000       2.75950000
H        1.37920000       0.32000000       4.35120000
