16
Properties=species:S:1:pos:R:3 gdb_87314=T pbc="F F F"
O       -0.25900000       1.36610000       0.05220000
C       -0.12950000      -0.02120000       0.11180000
C       -0.78860000      -0.78540000       1.22100000
C       -1.38330000      -0.83310000      -0.18720000
C       -2.67560000      -0.05290000      -0.44400000
C       -3.84690000      -0.68080000       0.16620000
N       -4.76930000      -1.17010000       0.66080000
C       -1.22950000      -2.04390000      -0.94510000
C       -1.10910000      -3.05190000      -1.58950000
H        0.21590000       1.74600000       0.79900000
H        0.79560000      -0.41660000      -0.30360000
H       -0.31530000      -1.68380000       1.59760000
H       -1.34860000      -0.21290000       1.95330000
H       -2.56400000       0.96110000      -0.05080000
H       -2.84300000       0.03750000      -1.52220000
H       -1.00760000      -3.94620000      -2.15310000
