17
Properties=species:S:1:pos:R:3 gdb_6997=T pbc="F F F"
C       -0.13010000       1.56540000      -0.10220000
C        0.05060000       0.06290000       0.02720000
N        1.14740000      -0.51820000      -0.77500000
C        1.74920000      -1.18110000       0.26090000
O        2.64610000      -1.98150000       0.33320000
C        0.76200000      -0.55190000       1.28560000
C        1.37010000       0.38810000       2.31300000
O       -0.06580000      -1.52830000       1.89060000
H        0.81240000       2.09950000       0.04380000
H       -0.51120000       1.82130000      -1.09660000
H       -0.85640000       1.92820000       0.63220000
H       -0.89950000      -0.45800000      -0.13210000
H        1.23040000      -0.65940000      -1.77230000
H        1.98800000       1.16060000       1.84710000
H        0.58320000       0.86820000       2.90250000
H        2.01050000      -0.18200000       2.99400000
H        0.51600000      -2.19580000       2.27390000
