14
Properties=species:S:1:pos:R:3 gdb_11627=T pbc="F F F"
O       -0.02150000      -0.00940000       0.00460000
C       -0.03080000       1.17790000       0.01110000
C       -0.99610000       2.36910000       0.02680000
C       -0.02050000       2.97220000       1.09150000
C        0.96270000       2.38310000       0.00870000
C       -0.04030000       2.98420000      -1.04910000
C        2.38840000       2.40830000      -0.00440000
C        3.59140000       2.40750000      -0.01570000
H       -2.08220000       2.37930000       0.03690000
H       -0.01970000       4.06340000       1.13740000
H        0.00070000       2.51930000       2.08380000
H       -0.03750000       2.54240000      -2.04660000
H       -0.04030000       4.07580000      -1.08270000
H        4.65340000       2.40240000      -0.02570000
