12
Properties=species:S:1:pos:R:3 gdb_132681=T pbc="F F F"
O        0.08540000       1.35930000      -0.11130000
C        0.06450000       0.00340000      -0.02780000
C        0.01870000      -0.72880000      -1.21420000
N       -0.00460000      -2.06330000      -1.23250000
C        0.01600000      -2.71460000      -0.09970000
F       -0.00780000      -4.04320000      -0.13660000
C        0.06170000      -2.07720000       1.14060000
F        0.08100000      -2.78970000       2.26330000
C        0.08650000      -0.69580000       1.18250000
H        0.11660000       1.74100000       0.77190000
H        0.00090000      -0.21090000      -2.16750000
H        0.12210000      -0.19200000       2.14290000
