16
Properties=species:S:1:pos:R:3 gdb_85577=T pbc="F F F"
C       -0.06350000       1.44340000      -0.16680000
C        0.03250000      -0.07740000       0.05230000
N        0.67230000      -0.80010000      -1.04590000
C        2.03760000      -0.80210000      -1.23340000
O        2.58610000      -0.92810000      -2.29490000
O        2.75740000      -0.65890000      -0.08140000
C        2.13640000      -1.03970000       1.14590000
C        0.78380000      -0.37570000       1.34770000
O        0.33900000      -0.10880000       2.43450000
H        0.93080000       1.88180000      -0.29480000
H       -0.65400000       1.66180000      -1.06110000
H       -0.54560000       1.90980000       0.69620000
H       -0.97760000      -0.48210000       0.17850000
H        0.17190000      -0.82080000      -1.92310000
H        1.99700000      -2.13000000       1.17950000
H        2.81600000      -0.75350000       1.94960000
