19
Properties=species:S:1:pos:R:3 gdb_111259=T pbc="F F F"
C        0.08550000       1.52410000      -0.13560000
C       -0.12700000       0.01140000      -0.00340000
C        0.62560000      -0.57150000       1.19310000
C        0.66830000      -2.08830000       1.43520000
C        1.32630000      -2.79650000       0.29360000
C        2.25400000      -2.10640000       1.24990000
O        3.26280000      -2.80870000       1.84950000
C        2.18180000      -0.62240000       1.18830000
O        3.02200000       0.20650000       1.43460000
H        1.14840000       1.76520000      -0.23150000
H       -0.43600000       1.91960000      -1.01220000
H       -0.29240000       2.05360000       0.74580000
H       -1.19650000      -0.20780000       0.10850000
H        0.19050000      -0.48410000      -0.92810000
H        0.32920000      -0.03550000       2.10400000
H        0.11140000      -2.61030000       2.20200000
H        1.38270000      -3.87660000       0.39760000
H        1.21100000      -2.46010000      -0.73260000
H        3.69770000      -2.21090000       2.47150000
