12
Properties=species:S:1:pos:R:3 gdb_133488=T pbc="F F F"
C        0.02790000       1.50310000      -0.02540000
C       -0.05170000      -0.00230000       0.06660000
O       -0.12970000      -0.61550000       1.10560000
C       -0.02880000      -0.71050000      -1.21320000
C       -0.01010000      -1.30060000      -2.26130000
C        0.01060000      -2.01900000      -3.53860000
F        0.11770000      -3.33780000      -3.35560000
F       -1.11230000      -1.78870000      -4.22830000
F        1.04490000      -1.62390000      -4.28980000
H        0.94850000       1.79900000      -0.54030000
H       -0.80810000       1.88690000      -0.62030000
H        0.00360000       1.93140000       0.97730000
