23
Properties=species:S:1:pos:R:3 gdb_115485=T pbc="F F F"
C       -0.27200000       1.57020000       0.13990000
C       -0.14220000       0.04820000       0.04740000
C        0.87850000      -0.52100000       1.04120000
O        0.49340000      -0.19990000       2.38600000
C        0.40120000      -1.38160000       3.17100000
C        0.70880000      -2.52540000       2.23380000
C        0.67690000      -3.96070000       2.66420000
C        1.73440000      -4.31030000       3.72710000
C        0.98770000      -2.02040000       1.03460000
H        0.67950000       2.06250000      -0.09140000
H       -1.02260000       1.94760000      -0.56120000
H       -0.56450000       1.86650000       1.15070000
H       -1.11080000      -0.42920000       0.23880000
H        0.16370000      -0.24530000      -0.96550000
H        1.85640000      -0.04770000       0.83870000
H        1.11110000      -1.32670000       4.01230000
H       -0.60650000      -1.46630000       3.61030000
H       -0.31840000      -4.19470000       3.06780000
H        0.81420000      -4.60210000       1.78690000
H        1.59210000      -3.72920000       4.64350000
H        1.67760000      -5.37000000       3.99360000
H        2.74330000      -4.10630000       3.35530000
H        1.24790000      -2.58480000       0.14690000
