15
Properties=species:S:1:pos:R:3 gdb_44396=T pbc="F F F"
O       -0.14370000       0.10610000       0.24260000
C       -0.02780000       1.27150000       0.05650000
O       -1.02190000       2.18080000      -0.24280000
C       -0.07040000       3.27900000      -0.33330000
C        0.00700000       4.15320000       0.93500000
C        1.52600000       4.46040000       1.00970000
C        1.49620000       2.94590000       1.34840000
O        0.20090000       3.16030000       1.98310000
C        1.09730000       2.31560000      -0.00620000
H       -0.13950000       3.79910000      -1.28730000
H       -0.78010000       4.87660000       1.13910000
H        2.05260000       4.79830000       0.11280000
H        1.77570000       5.07190000       1.87670000
H        2.22620000       2.44050000       1.97740000
H        1.90410000       2.13770000      -0.71470000
