16
Properties=species:S:1:pos:R:3 gdb_55842=T pbc="F F F"
N        0.11860000       0.46230000      -0.89070000
C        0.02330000       0.07340000       0.41020000
O        0.69210000       0.55390000       1.30330000
C       -1.03330000      -1.00760000       0.68270000
C       -0.93070000      -2.24170000      -0.19530000
C       -2.08510000      -3.26090000      -0.14330000
C       -2.31280000      -2.85220000      -1.59710000
O       -3.04740000      -3.11340000      -2.49040000
O       -1.26610000      -1.95410000      -1.60830000
H        0.81750000       1.14710000      -1.12810000
H       -0.38750000      -0.00870000      -1.62340000
H       -0.91260000      -1.29940000       1.72870000
H       -2.03230000      -0.56860000       0.56780000
H        0.06730000      -2.68520000      -0.15650000
H       -1.80670000      -4.30730000      -0.01060000
H       -2.91180000      -3.01270000       0.52510000
