23
Properties=species:S:1:pos:R:3 gdb_59576=T pbc="F F F"
C       -0.10800000       1.44160000      -0.24920000
C        0.00020000      -0.07130000      -0.01310000
C        0.86130000      -0.39880000       1.21380000
C       -1.38910000      -0.67570000       0.13910000
O       -2.23540000      -0.48110000      -1.02880000
C       -2.63330000      -1.86740000      -1.03210000
C       -1.82130000      -2.71870000      -2.03250000
C       -0.78750000      -3.03080000      -0.90350000
C       -1.63080000      -2.20250000       0.10790000
H        0.87820000       1.88170000      -0.42930000
H       -0.74390000       1.65300000      -1.11260000
H       -0.54340000       1.94370000       0.62320000
H        0.46690000      -0.51640000      -0.90090000
H        0.96630000      -1.47900000       1.35960000
H        1.86560000       0.02390000       1.10960000
H        0.42000000       0.02010000       2.12610000
H       -1.87540000      -0.22420000       1.01980000
H       -3.71920000      -1.98830000      -0.98360000
H       -2.35160000      -3.60370000      -2.39500000
H       -1.45350000      -2.14820000      -2.88810000
H       -0.74560000      -4.09060000      -0.64250000
H        0.23510000      -2.68780000      -1.07410000
H       -1.89920000      -2.68090000       1.04890000
