19
Properties=species:S:1:pos:R:3 gdb_46516=T pbc="F F F"
O       -0.01410000      -0.07670000      -0.03100000
C       -0.02070000       1.13950000       0.01160000
C       -1.32870000       1.92720000       0.05510000
N       -1.14400000       3.29380000       0.54240000
C       -0.10170000       3.96880000      -0.18960000
C       -0.34630000       4.52700000      -1.58110000
C       -0.17270000       5.44760000      -0.38710000
C        1.22790000       3.32510000       0.12950000
N        1.12530000       1.88020000      -0.03660000
H       -1.75060000       1.87590000      -0.96480000
H       -2.00590000       1.38170000       0.71620000
H       -2.01650000       3.80840000       0.50010000
H        0.44810000       4.48560000      -2.31870000
H       -1.34460000       4.42360000      -1.99390000
H       -1.04830000       5.96580000      -0.00840000
H        0.74350000       6.02370000      -0.30780000
H        2.00710000       3.70940000      -0.53780000
H        1.51200000       3.57580000       1.16160000
H        1.97110000       1.32870000      -0.01920000
