14
Properties=species:S:1:pos:R:3 gdb_123971=T pbc="F F F"
C        0.02240000       1.49160000      -0.04320000
N        1.36320000       2.07730000       0.04470000
C        2.38260000       1.34360000       0.23830000
N        2.42140000      -0.03530000       0.39570000
C        1.23830000      -0.73080000       0.20570000
C        0.86310000      -2.03360000       0.16620000
O       -0.46850000      -2.10460000      -0.06400000
N       -0.98610000      -0.81620000      -0.17770000
C        0.03050000      -0.01190000      -0.01530000
H       -0.58170000       1.88630000       0.78470000
H       -0.45830000       1.85760000      -0.95840000
H        3.36430000       1.81110000       0.30840000
H        3.30890000      -0.50760000       0.41390000
H        1.37950000      -2.97340000       0.27210000
