19
Properties=species:S:1:pos:R:3 gdb_101909=T pbc="F F F"
O        0.03840000       1.42460000      -0.05700000
C        0.09700000       0.01740000       0.02630000
C       -1.30300000      -0.58250000       0.11270000
O       -1.99080000      -0.13080000      -1.04800000
C       -1.30130000      -2.10350000       0.16720000
O       -2.65940000      -2.51480000       0.17260000
C       -2.83690000      -3.90770000       0.11650000
C       -4.32810000      -4.20000000       0.11540000
O       -4.78730000      -5.30900000       0.07190000
H       -0.61210000       1.61980000      -0.74250000
H        0.61830000      -0.41760000      -0.84270000
H        0.67060000      -0.23080000       0.92540000
H       -1.79700000      -0.19840000       1.01900000
H       -2.85330000      -0.56040000      -1.04640000
H       -0.78550000      -2.51380000      -0.71520000
H       -0.78420000      -2.46460000       1.07030000
H       -2.38760000      -4.34480000      -0.79070000
H       -2.37790000      -4.41560000       0.98080000
H       -4.96210000      -3.28670000       0.15910000
