15
Properties=species:S:1:pos:R:3 gdb_132044=T pbc="F F F"
C       -0.01200000       1.53220000      -0.01200000
C       -0.00980000       0.03080000       0.00410000
C       -1.14150000      -0.69780000      -0.10300000
F       -2.33140000      -0.11590000      -0.23010000
C       -1.17250000      -2.15390000      -0.09150000
N       -2.23700000      -2.83380000      -0.19350000
O        0.07110000      -2.76430000       0.04310000
C        1.21110000      -2.04120000       0.15030000
C        1.23070000      -0.70180000       0.13740000
H        0.60030000       1.90950000      -0.83900000
H       -1.02270000       1.92580000      -0.12000000
H        0.42040000       1.92800000       0.91400000
H       -2.02990000      -3.83190000      -0.16180000
H        2.07810000      -2.68180000       0.24540000
H        2.17170000      -0.17450000       0.22650000
