15
Properties=species:S:1:pos:R:3 gdb_57145=T pbc="F F F"
C       -0.32160000       1.44510000       0.19850000
C       -0.00240000      -0.00720000      -0.02340000
O        1.10740000      -0.43630000      -0.23050000
C       -1.17500000      -1.03560000      -0.01060000
O       -0.69060000      -2.31500000      -0.29340000
C       -1.88570000      -0.96660000       1.26640000
C       -2.47110000      -0.89090000       2.32070000
C       -3.16500000      -0.83140000       3.58210000
O       -3.65760000       0.17430000       4.03940000
H        0.57970000       2.04580000       0.07600000
H       -1.09180000       1.77620000      -0.50660000
H       -0.73160000       1.58540000       1.20360000
H       -1.87550000      -0.71180000      -0.80070000
H        0.27580000      -2.20920000      -0.34060000
H       -3.21470000      -1.80050000       4.11740000
