21
Properties=species:S:1:pos:R:3 gdb_95638=T pbc="F F F"
C        0.03640000       1.57930000      -0.05250000
C        0.04350000       0.04740000       0.02690000
C        0.62580000      -0.54150000      -1.26610000
N        0.93030000      -1.96170000      -1.19110000
C        1.90230000      -2.19540000      -0.13010000
C        1.63790000      -1.50620000       1.21050000
O        2.19420000      -1.90470000       2.22140000
N        0.77350000      -0.43720000       1.20830000
C        0.38570000       0.11930000       2.49850000
H        1.05970000       1.96810000      -0.08020000
H       -0.47610000       1.89640000      -0.96640000
H       -0.48260000       2.03750000       0.79220000
H       -1.00350000      -0.29220000       0.11700000
H       -0.07830000      -0.35470000      -2.08340000
H        1.55620000      -0.01370000      -1.51620000
H        0.08020000      -2.48210000      -0.99340000
H        1.98740000      -3.26370000       0.08120000
H        2.89280000      -1.86760000      -0.47470000
H        0.81080000      -0.51300000       3.27620000
H        0.75890000       1.14020000       2.63160000
H       -0.70770000       0.13640000       2.58970000
