18
Properties=species:S:1:pos:R:3 gdb_17384=T pbc="F F F"
C       -0.03120000       1.44010000       0.20660000
C        1.25090000       0.75480000      -0.15730000
C        1.86600000       0.13330000       1.10210000
C        0.57130000      -0.72240000       1.27410000
C        0.65430000      -2.26040000       1.36930000
C       -0.10820000      -2.08060000       2.69530000
O       -0.14560000      -0.64990000       2.52590000
C       -0.03530000      -0.05780000       0.04660000
H       -0.15810000       1.88060000       1.19220000
H       -0.52350000       1.98260000      -0.59400000
H        1.77570000       0.95440000      -1.08260000
H        2.74670000      -0.48700000       0.91540000
H        2.08150000       0.82590000       1.92180000
H        0.11480000      -2.79830000       0.58690000
H        1.66370000      -2.66740000       1.45410000
H       -1.11420000      -2.51580000       2.73020000
H        0.43470000      -2.37230000       3.60250000
H       -0.66670000      -0.55320000      -0.68260000
