9
Properties=species:S:1:pos:R:3 gdb_23683=T pbc="F F F"
F        0.01470000       0.09210000       0.00340000
C       -0.01130000       1.39900000       0.01060000
N       -1.20730000       1.96370000       0.02990000
C       -1.15500000       3.29580000       0.03610000
N       -0.04860000       4.03950000       0.02480000
C        1.05980000       3.31790000       0.00580000
F        2.18580000       3.98170000      -0.00620000
N        1.16650000       1.99990000      -0.00250000
H       -2.10350000       3.82530000       0.05190000
