21
Properties=species:S:1:pos:R:3 gdb_83279=T pbc="F F F"
C       -0.26160000       1.51780000       0.10160000
C       -0.01650000       0.02890000      -0.00380000
C        0.70780000      -0.60440000      -1.17870000
C        1.36790000       0.20500000      -2.28100000
O        2.32130000       1.14290000      -1.78850000
C        3.16140000       0.57850000      -0.81140000
C        4.25070000       1.57340000      -0.47710000
O        2.44140000       0.30500000       0.37420000
C        1.35920000      -0.56650000       0.18540000
H        0.57900000       2.08730000      -0.29600000
H       -1.16170000       1.80230000      -0.45430000
H       -0.40930000       1.81100000       1.14650000
H       -0.81990000      -0.58470000       0.39790000
H        0.33650000      -1.56760000      -1.51600000
H        1.86710000      -0.48880000      -2.97670000
H        0.64160000       0.78920000      -2.85480000
H        3.58140000      -0.36670000      -1.20400000
H        3.80080000       2.49720000      -0.10540000
H        4.90650000       1.16290000       0.29400000
H        4.83820000       1.79740000      -1.37020000
H        1.46160000      -1.48560000       0.75800000
