13
Properties=species:S:1:pos:R:3 gdb_3781=T pbc="F F F"
C       -0.04260000       1.43220000      -0.03000000
N       -0.11370000      -0.02100000       0.04440000
C        0.60270000      -0.63090000       1.05660000
C        1.27910000      -0.14650000       2.15990000
N        1.75320000      -1.20560000       2.87880000
N        1.42620000      -2.31460000       2.29840000
N        0.71690000      -1.97680000       1.18260000
H        0.98050000       1.81390000      -0.16320000
H       -0.65860000       1.77360000      -0.86430000
H       -0.45110000       1.86120000       0.88970000
H       -0.00870000      -0.46910000      -0.85550000
H        1.44850000       0.87160000       2.46630000
H        0.32700000      -2.70240000       0.60370000
