20
Properties=species:S:1:pos:R:3 gdb_71233=T pbc="F F F"
C       -0.05110000       1.54630000       0.02350000
C        0.02230000       0.03600000      -0.02630000
C        1.05850000      -0.66720000      -0.94590000
C        1.20060000      -1.65000000       0.21170000
C       -0.10830000      -2.45560000       0.52970000
C       -0.13660000      -1.65040000       1.84660000
N        0.71650000      -0.59630000       1.20160000
O       -1.16600000      -2.05390000      -0.32740000
C       -1.33060000      -0.63470000      -0.28280000
H        0.93260000       1.96370000       0.25310000
H       -0.39070000       1.95660000      -0.93450000
H       -0.74690000       1.87930000       0.80200000
H        0.70300000      -1.04350000      -1.90720000
H        1.96540000      -0.07340000      -1.08180000
H        2.14800000      -2.15140000       0.42700000
H       -0.09610000      -3.54790000       0.53150000
H       -1.10650000      -1.34050000       2.24590000
H        0.44340000      -2.11840000       2.64780000
H       -2.06020000      -0.35150000       0.49030000
H       -1.73820000      -0.32920000      -1.25260000
