18
Properties=species:S:1:pos:R:3 gdb_84815=T pbc="F F F"
C       -0.02750000       1.55110000      -0.16360000
C        0.02750000       0.03420000       0.00970000
N        0.65200000      -0.61240000      -1.16510000
C        1.49420000      -1.43630000      -0.70320000
O        1.67100000      -1.55210000       0.63350000
C        0.83700000      -0.52220000       1.22990000
C        1.74630000       0.47340000       1.96850000
C        2.45820000      -0.13580000       3.08460000
C        3.02920000      -0.64310000       4.01190000
H        0.97130000       1.98310000      -0.27060000
H       -0.58810000       1.78510000      -1.07170000
H       -0.52990000       2.03340000       0.68090000
H       -1.00420000      -0.33400000       0.07440000
H        2.12040000      -2.09630000      -1.29380000
H        0.18840000      -1.01920000       1.95500000
H        2.46170000       0.90360000       1.25800000
H        1.13110000       1.30370000       2.33570000
H        3.54190000      -1.09070000       4.82670000
