18
Properties=species:S:1:pos:R:3 gdb_17956=T pbc="F F F"
C        0.00080000       1.47060000       0.20070000
C        1.38170000       2.12520000       0.02820000
C        1.91050000       2.20410000      -1.37490000
C        1.41430000       1.81130000      -2.55960000
C        0.22580000       1.07250000      -2.99090000
C       -0.42460000       0.01900000      -2.45760000
C       -0.19650000      -0.63420000      -1.17650000
C        0.01370000      -0.01590000      -0.00820000
H       -0.35840000       1.68850000       1.21300000
H       -0.69900000       1.93850000      -0.49960000
H        1.35260000       3.15200000       0.42480000
H        2.11440000       1.60280000       0.65850000
H        2.84810000       2.75690000      -1.43300000
H        2.00860000       2.12830000      -3.41740000
H       -0.10070000       1.36290000      -3.98910000
H       -1.18760000      -0.44220000      -3.08370000
H       -0.25310000      -1.72190000      -1.18510000
H        0.18710000      -0.62750000       0.87520000
