21
Properties=species:S:1:pos:R:3 gdb_117794=T pbc="F F F"
C       -0.10070000       1.38440000      -0.05610000
O        0.00090000      -0.02640000      -0.01210000
C        0.67750000      -0.59350000       1.11660000
C        0.47160000      -2.10910000       0.95760000
C        2.17780000      -0.20790000       1.14010000
C        2.93750000      -0.55170000      -0.13750000
O        4.23460000       0.01630000      -0.01060000
C        0.05720000      -0.15270000       2.37990000
C       -0.43980000       0.19990000       3.41640000
H        0.87300000       1.87190000      -0.20330000
H       -0.73760000       1.61720000      -0.91280000
H       -0.56290000       1.78780000       0.85360000
H        0.84750000      -2.43560000      -0.01460000
H        0.99350000      -2.65350000       1.74810000
H       -0.59360000      -2.34190000       1.01080000
H        2.27640000       0.86760000       1.31540000
H        2.65230000      -0.70080000       1.99460000
H        2.99880000      -1.64240000      -0.26830000
H        2.40180000      -0.14670000      -1.00790000
H        4.72880000      -0.18920000      -0.80950000
H       -0.88250000       0.50860000       4.33130000
