20
Properties=species:S:1:pos:R:3 gdb_103574=T pbc="F F F"
C        0.03680000       1.41420000       0.04820000
N       -0.05980000      -0.02370000       0.04000000
C       -0.05290000      -0.90340000      -1.01380000
O       -0.08350000      -0.72890000      -2.20500000
C        0.02880000      -2.11190000      -0.05800000
C        0.06260000      -1.06130000       1.09740000
C        1.36630000      -0.98430000       1.88660000
C       -1.16010000      -1.12090000       2.01820000
O       -1.24750000      -0.00760000       2.89580000
H        0.89030000       1.75290000       0.64620000
H        0.17840000       1.73940000      -0.98580000
H       -0.86970000       1.89900000       0.43400000
H       -0.84500000      -2.76740000      -0.07790000
H        0.93650000      -2.70830000      -0.16680000
H        2.22520000      -0.89530000       1.21510000
H        1.35550000      -0.12880000       2.56700000
H        1.49540000      -1.88670000       2.49300000
H       -2.06950000      -1.22330000       1.40900000
H       -1.08580000      -2.00780000       2.65800000
H       -1.57860000       0.74240000       2.39320000
