18
Properties=species:S:1:pos:R:3 gdb_79789=T pbc="F F F"
C       -0.23710000       1.52140000      -0.04430000
N        0.01400000       0.09000000       0.01480000
C        1.15410000      -0.47210000      -0.75010000
C        2.46360000       0.23300000      -0.28230000
O        3.47770000      -0.80690000      -0.28080000
C        2.73570000      -1.34600000       0.82860000
C        2.17380000       0.03890000       1.24750000
C        0.68190000      -0.47410000       1.19860000
C        1.28180000      -1.61330000       0.32650000
H        0.62610000       2.14670000       0.24140000
H       -0.53380000       1.79520000      -1.06220000
H       -1.06800000       1.77000000       0.62420000
H        1.01940000      -0.64980000      -1.81700000
H        2.79010000       1.16100000      -0.74810000
H        3.27310000      -2.06640000       1.44250000
H        2.61060000       0.69910000       1.99190000
H        0.11600000      -0.59440000       2.12200000
H        0.82570000      -2.58370000       0.15740000
