16
Properties=species:S:1:pos:R:3 gdb_32554=T pbc="F F F"
C        0.04770000       1.34870000      -0.08340000
O       -0.02300000      -0.06400000      -0.07490000
C       -1.24100000      -0.63160000       0.02800000
C       -2.40020000       0.05650000       0.12360000
O       -3.62910000      -0.53800000       0.22740000
C       -3.67080000      -1.88390000       0.23330000
C       -2.58220000      -2.66280000       0.14370000
C       -1.23840000      -2.10650000       0.03040000
N       -0.13060000      -2.75180000      -0.06100000
H        1.10520000       1.59960000      -0.17220000
H       -0.50020000       1.77300000      -0.93570000
H       -0.35120000       1.77620000       0.84650000
H       -2.49070000       1.13130000       0.12920000
H       -4.68720000      -2.24720000       0.31890000
H       -2.70490000      -3.74020000       0.15600000
H       -0.31660000      -3.75740000      -0.04360000
