21
Properties=species:S:1:pos:R:3 gdb_99142=T pbc="F F F"
C       -0.36510000       0.89700000      -0.98570000
N       -0.75310000      -0.41100000      -0.50160000
C       -1.15760000      -0.62740000       0.78070000
O       -1.21350000       0.24120000       1.63440000
C       -1.50660000      -2.09250000       1.07900000
C       -2.53880000      -2.68400000       0.13880000
N       -2.12500000      -2.92230000      -1.26220000
C       -2.48750000      -4.06980000      -0.40870000
C       -1.40800000      -5.07910000      -0.10330000
H        0.65730000       0.88890000      -1.38060000
H       -1.03740000       1.25160000      -1.77630000
H       -0.41600000       1.58700000      -0.14240000
H       -0.80120000      -1.19560000      -1.13840000
H       -0.58110000      -2.67540000       1.03910000
H       -1.87550000      -2.12370000       2.10660000
H       -3.53710000      -2.27190000       0.27750000
H       -2.88060000      -2.69180000      -1.90090000
H       -3.46180000      -4.51610000      -0.60490000
H       -0.43420000      -4.60200000       0.02500000
H       -1.64510000      -5.63830000       0.80810000
H       -1.31730000      -5.79700000      -0.92520000
