21
Properties=species:S:1:pos:R:3 gdb_109147=T pbc="F F F"
C        0.25080000       1.40490000       0.15880000
C       -0.01980000      -0.09960000       0.00760000
C       -1.51820000      -0.38330000      -0.10470000
C        0.80980000      -0.70640000      -1.17150000
N        2.00960000      -1.30050000      -0.56850000
C        1.80320000      -1.32870000       0.69440000
C        2.82170000      -1.91670000       1.63380000
O        3.96550000      -2.33650000       0.94240000
N        0.58330000      -0.85190000       1.13760000
H        1.32620000       1.60110000       0.21110000
H       -0.15470000       1.95800000      -0.69480000
H       -0.21910000       1.80260000       1.06580000
H       -1.93300000       0.08930000      -1.00150000
H       -1.70250000      -1.45930000      -0.16250000
H       -2.06340000       0.01040000       0.76010000
H        0.23930000      -1.48750000      -1.69120000
H        1.07970000       0.04920000      -1.91650000
H        3.08670000      -1.16420000       2.39560000
H        2.35420000      -2.75510000       2.17600000
H        3.76500000      -2.18090000       0.00490000
H        0.54540000      -0.42610000       2.05440000
