18
Properties=species:S:1:pos:R:3 gdb_106008=T pbc="F F F"
C        0.12360000       1.35660000       0.06000000
O        0.03540000      -0.05590000      -0.00980000
C       -1.23410000      -0.55810000      -0.01600000
C       -1.55170000      -2.06560000      -0.07450000
C       -2.76440000      -1.78840000       0.72980000
C       -2.39100000      -0.33360000       1.07460000
C       -3.18290000       0.53380000       0.06560000
C       -2.43760000      -0.28570000      -0.99860000
N       -2.83280000      -1.74410000      -0.77480000
H        1.18590000       1.60760000       0.05910000
H       -0.35760000       1.83380000      -0.80480000
H       -0.33620000       1.74380000       0.97960000
H       -0.96780000      -2.95720000      -0.26630000
H       -3.43500000      -2.46560000       1.24430000
H       -2.21660000      -0.06040000       2.11330000
H       -4.27440000       0.47490000       0.07940000
H       -2.86290000       1.57970000       0.07410000
H       -2.38090000      -0.02070000      -2.05340000
