16
Properties=species:S:1:pos:R:3 gdb_127775=T pbc="F F F"
C       -0.01310000       1.43900000      -0.00610000
N       -0.00850000      -0.00400000       0.06850000
N        0.06340000      -0.77180000      -1.08990000
N        0.05160000      -2.03110000      -0.74510000
C       -0.02570000      -2.10560000       0.60330000
C       -0.06330000      -0.84270000       1.10790000
O       -0.14090000      -0.68800000       2.43700000
C       -0.16400000      -2.07560000       2.95110000
C       -0.08400000      -3.08140000       1.74070000
H        0.84570000       1.85920000       0.52490000
H        0.04680000       1.70280000      -1.06220000
H       -0.93310000       1.84810000       0.42110000
H        0.68570000      -2.16980000       3.63010000
H       -1.08940000      -2.18070000       3.52090000
H       -0.96070000      -3.73650000       1.71580000
H        0.80120000      -3.72080000       1.81890000
