17
Properties=species:S:1:pos:R:3 gdb_17465=T pbc="F F F"
C        0.11430000       1.49130000      -0.14350000
C       -0.06850000       0.01690000       0.09820000
C       -1.39310000      -0.66480000      -0.27450000
C       -1.52250000      -1.87010000       0.65720000
N       -0.50100000      -2.91670000       0.47380000
C       -0.33430000      -1.92170000       1.55450000
C        0.56530000      -0.75980000       1.18510000
O        1.08140000      -0.80500000      -0.14700000
H        1.09690000       1.81530000       0.20870000
H        0.04690000       1.72040000      -1.21310000
H       -0.65620000       2.07380000       0.37280000
H       -2.22450000       0.02740000      -0.10010000
H       -1.40870000      -0.95180000      -1.33050000
H       -2.51050000      -2.16410000       0.99800000
H       -0.84460000      -3.78380000       0.88200000
H       -0.39180000      -2.23590000       2.59080000
H        1.22010000      -0.31960000       1.93340000
