16
Properties=species:S:1:pos:R:3 gdb_27411=T pbc="F F F"
C       -0.00720000       1.53000000       0.07250000
C       -0.02970000       0.02020000      -0.00940000
C       -1.22350000      -0.61870000      -0.14630000
C       -1.51500000      -2.04450000      -0.26770000
O       -2.62630000      -2.43750000      -0.60120000
C       -0.50340000      -3.07260000       0.11790000
N        0.77670000      -3.03710000       0.22900000
C        1.57600000      -1.93390000       0.07960000
C        1.26160000      -0.61270000       0.02210000
H        0.58640000       1.95280000      -0.74630000
H       -1.01130000       1.95430000       0.02360000
H        0.46280000       1.85840000       1.00670000
H       -2.12590000      -0.01450000      -0.19900000
H       -0.98110000      -4.03880000       0.29980000
H        2.63430000      -2.18610000       0.06970000
H        2.11170000       0.06600000       0.00770000
