15
Properties=species:S:1:pos:R:3 gdb_5626=T pbc="F F F"
C        0.06850000       1.31490000       0.01470000
O        0.00910000      -0.09550000      -0.03190000
C       -1.24600000      -0.62810000      -0.00010000
C       -2.48870000      -0.03470000       0.07010000
N       -3.41310000      -1.05450000       0.07020000
C       -2.78300000      -2.27850000       0.00390000
C       -1.43130000      -2.03800000      -0.04180000
O       -0.43550000      -2.96660000      -0.11490000
H        1.12370000       1.59180000      -0.01780000
H       -0.45250000       1.76210000      -0.84340000
H       -0.38110000       1.70020000       0.94050000
H       -2.78630000       0.99810000       0.11700000
H       -4.40590000      -0.92500000       0.12050000
H       -3.33100000      -3.20470000      -0.00660000
H        0.39740000      -2.48150000      -0.12650000
