19
Properties=species:S:1:pos:R:3 gdb_99688=T pbc="F F F"
C       -0.18390000       1.35760000      -0.13730000
O        0.19460000       0.01140000       0.06270000
C        0.69940000      -0.60980000      -1.11690000
C        1.28880000      -1.89660000      -0.74160000
C        1.79310000      -2.94960000      -0.45380000
C        2.39310000      -4.22590000      -0.09590000
C       -0.33330000      -0.77220000      -2.15530000
C       -1.18020000      -0.88450000      -3.00340000
C       -2.20290000      -1.03870000      -4.02740000
H        0.66490000       1.96940000      -0.48260000
H       -0.99970000       1.45060000      -0.86690000
H       -0.52200000       1.73510000       0.83010000
H        1.49960000       0.02960000      -1.53410000
H        3.46740000      -4.23610000      -0.30980000
H        2.26530000      -4.43220000       0.97240000
H        1.93330000      -5.05090000      -0.65080000
H       -2.05440000      -1.96410000      -4.59470000
H       -3.20320000      -1.08040000      -3.58280000
H       -2.18790000      -0.20560000      -4.73860000
