20
Properties=species:S:1:pos:R:3 gdb_37032=T pbc="F F F"
C       -0.01660000       1.56960000       0.25560000
C        1.55700000       1.60310000       0.26620000
C        1.53860000       0.12950000      -0.17680000
N        0.80560000      -0.60350000       0.90100000
C        0.05550000       0.09480000      -0.17420000
C       -0.72020000      -0.66250000      -1.22800000
C        0.12660000      -0.85340000      -2.51600000
C        1.61200000      -1.05670000      -2.28490000
C        2.28170000      -0.58700000      -1.22520000
H       -0.52120000       1.76010000       1.20620000
H       -0.43730000       2.21780000      -0.51760000
H        1.96670000       2.27590000      -0.49020000
H        2.03670000       1.79550000       1.22870000
H        0.83780000      -1.59100000       0.64890000
H       -1.02100000      -1.64340000      -0.84160000
H       -1.64930000      -0.13710000      -1.47310000
H       -0.27190000      -1.69430000      -3.09440000
H        0.00460000       0.02560000      -3.16650000
H        2.14890000      -1.59480000      -3.06280000
H        3.35430000      -0.73990000      -1.13020000
