11
Properties=species:S:1:pos:R:3 gdb_27522=T pbc="F F F"
O       -0.11080000       1.27070000      -0.08810000
C        0.06460000      -0.02720000       0.04320000
N        1.20140000      -0.58750000      -0.15920000
C        1.28340000      -1.95020000       0.00350000
O        2.24630000      -2.62970000      -0.14030000
O        0.08090000      -2.61090000       0.38570000
C       -1.09140000      -1.97760000       0.58680000
N       -2.17660000      -2.49800000       0.92140000
O       -1.08070000      -0.60370000       0.40010000
H        0.74460000       1.64570000      -0.34720000
H       -2.07200000      -3.50440000       1.03080000
