19
Properties=species:S:1:pos:R:3 gdb_2265=T pbc="F F F"
C       -0.11670000       1.55910000       0.02590000
C        0.07460000       0.04710000       0.00370000
C        1.17820000      -0.57830000      -0.91890000
C        1.77020000      -1.29010000       0.30190000
C        2.17250000      -0.26990000       1.33230000
C        0.72000000      -0.65270000       1.21930000
C       -0.05770000      -1.23650000       2.36450000
H        0.81980000       2.08370000       0.24150000
H       -0.48290000       1.92220000      -0.94110000
H       -0.84640000       1.85500000       0.78820000
H       -0.88670000      -0.43240000      -0.21310000
H        0.76510000      -1.25310000      -1.67200000
H        1.84730000       0.13110000      -1.41970000
H        2.16120000      -2.30110000       0.31580000
H        2.67790000      -0.66550000       2.20830000
H        2.53250000       0.70950000       1.02420000
H       -0.47560000      -0.45110000       3.00690000
H       -0.89390000      -1.85020000       2.00860000
H        0.57650000      -1.86960000       2.99430000
