22
Properties=species:S:1:pos:R:3 gdb_9145=T pbc="F F F"
C        0.17080000       1.41690000      -0.44700000
C       -0.04650000       0.16700000       0.42560000
C       -1.40100000      -0.36950000       0.33000000
C       -2.52650000      -0.78840000       0.22700000
C       -3.88670000      -1.32150000       0.13150000
C       -3.86230000      -2.78540000      -0.35410000
C       -4.63140000      -1.14950000       1.47900000
C       -6.12140000      -1.49750000       1.42160000
H        1.19670000       1.78330000      -0.34340000
H       -0.00970000       1.19010000      -1.50130000
H       -0.51310000       2.21820000      -0.15380000
H        0.67550000      -0.60830000       0.13760000
H        0.17780000       0.41000000       1.47250000
H       -4.43040000      -0.72930000      -0.62000000
H       -3.36260000      -3.42490000       0.38070000
H       -4.87530000      -3.16630000      -0.51130000
H       -3.31750000      -2.86880000      -1.29800000
H       -4.12920000      -1.76430000       2.23620000
H       -4.51260000      -0.10950000       1.80180000
H       -6.60370000      -1.28810000       2.38140000
H       -6.63740000      -0.90620000       0.65630000
H       -6.29010000      -2.55450000       1.19500000
