19
Properties=species:S:1:pos:R:3 gdb_7143=T pbc="F F F"
C       -0.37250000       1.18620000      -0.87680000
C       -0.00690000      -0.10880000      -0.17610000
O        0.73450000      -0.91130000      -1.10920000
C        1.14520000      -2.12230000      -0.67890000
N        0.89200000      -2.52450000       0.49930000
C        1.87640000      -2.84670000      -1.78570000
C        0.95120000      -3.21130000      -2.96090000
O        1.63440000      -3.91890000      -3.97970000
H        0.52420000       1.72670000      -1.19360000
H       -0.98710000       0.99290000      -1.76080000
H       -0.93980000       1.82910000      -0.19730000
H        0.60870000       0.06330000       0.71300000
H       -0.89150000      -0.66560000       0.14970000
H        1.27420000      -3.45600000       0.64670000
H        2.67960000      -2.19830000      -2.15790000
H        2.33550000      -3.75720000      -1.39210000
H        0.15910000      -3.88140000      -2.61080000
H        0.46950000      -2.30170000      -3.34350000
H        2.25670000      -3.31320000      -4.39490000
