13
Properties=species:S:1:pos:R:3 gdb_21261=T pbc="F F F"
C       -0.02000000       1.40440000       0.01680000
O        0.01610000      -0.02770000      -0.02740000
C        0.61740000      -0.58940000      -1.07960000
C        0.66160000      -1.99910000      -1.13870000
N        1.24250000      -2.59580000      -2.15470000
C        1.76310000      -1.76930000      -3.08370000
N        1.74230000      -0.44710000      -3.06460000
N        1.15020000       0.16150000      -2.02900000
H        0.99150000       1.81870000       0.02790000
H       -0.55310000       1.80680000      -0.84850000
H       -0.54550000       1.64960000       0.93970000
H        0.21850000      -2.60160000      -0.34970000
H        2.25160000      -2.22610000      -3.93800000
