16
Properties=species:S:1:pos:R:3 gdb_49701=T pbc="F F F"
O       -0.52380000       0.49530000      -0.61440000
C        0.00550000       1.24260000       0.17210000
C        1.26870000       2.01380000      -0.03510000
N        2.36810000       1.72490000      -0.96350000
C        1.81090000       1.11810000      -2.24040000
C        0.91430000       2.34810000      -2.51940000
C        1.46760000       2.92590000      -1.22290000
C        1.96190000       4.30650000      -1.02010000
O        1.70630000       5.22100000      -1.76280000
H       -0.44540000       1.43040000       1.17170000
H        1.65970000       2.41720000       0.89760000
H        2.63980000       1.00870000      -2.94070000
H        1.31090000       0.16390000      -2.08910000
H        1.22080000       2.93830000      -3.38330000
H       -0.16170000       2.17600000      -2.55630000
H        2.60970000       4.43250000      -0.12410000
