20
Properties=species:S:1:pos:R:3 gdb_22269=T pbc="F F F"
C        0.13910000       1.66930000       0.46700000
C       -0.10370000       0.18860000       0.28640000
C        0.86580000      -0.67400000      -0.49240000
C        0.75590000      -0.83830000       1.00190000
O        1.78080000      -0.29810000       1.79950000
C        0.09250000      -2.03980000       1.59890000
C       -0.17520000      -2.05500000       3.08000000
N       -0.24330000      -2.97920000       0.79790000
O       -0.92320000      -4.01090000       1.46660000
H        1.19660000       1.87130000       0.64930000
H       -0.17080000       2.22300000      -0.42610000
H       -0.42680000       2.06300000       1.31810000
H       -1.14720000      -0.10030000       0.19380000
H        0.48390000      -1.46660000      -1.12280000
H        1.77370000      -0.19180000      -0.84100000
H        2.55560000      -0.86260000       1.70110000
H        0.31840000      -1.21520000       3.56770000
H       -1.25340000      -2.00550000       3.26780000
H        0.17260000      -2.99420000       3.51970000
H       -1.08690000      -4.63790000       0.75450000
