20
Properties=species:S:1:pos:R:3 gdb_105954=T pbc="F F F"
C       -0.00070000       1.59570000       0.02730000
C       -0.00830000       0.06260000       0.07590000
C       -1.38450000      -0.52550000       0.04210000
C       -2.67500000      -0.10570000       0.77040000
C       -2.62740000      -0.17000000      -0.73680000
N       -3.12090000      -1.61460000      -0.76100000
C       -3.14470000      -1.57850000       0.74990000
C       -1.90430000      -2.00080000       0.04430000
C       -1.22340000      -3.31920000      -0.09840000
H        1.02340000       1.97900000       0.04440000
H       -0.48060000       1.96590000      -0.88450000
H       -0.53150000       2.02280000       0.88430000
H        0.57290000      -0.32930000      -0.77010000
H        0.51060000      -0.27550000       0.98350000
H       -2.84740000       0.72370000       1.44170000
H       -2.83170000       0.56450000      -1.50660000
H       -3.87060000      -2.13880000       1.32860000
H       -1.97060000      -4.11700000      -0.15830000
H       -0.61790000      -3.35720000      -1.01100000
H       -0.56850000      -3.52530000       0.75550000
