12
Properties=species:S:1:pos:R:3 gdb_132889=T pbc="F F F"
F        0.01930000      -0.01820000       0.00330000
C       -0.02450000       1.31710000       0.01060000
C       -1.21000000       1.97010000       0.02980000
N       -1.20560000       3.34200000       0.03660000
C       -0.08000000       4.17180000       0.02570000
O       -0.16970000       5.38550000       0.03310000
C        1.16060000       3.39740000       0.00530000
F        2.27540000       4.11210000      -0.00600000
C        1.19750000       2.04160000      -0.00200000
H       -2.16610000       1.46610000       0.04000000
H       -2.08250000       3.84420000       0.05080000
H        2.14310000       1.51240000      -0.01730000
