20
Properties=species:S:1:pos:R:3 gdb_91838=T pbc="F F F"
C        0.67590000       1.50240000       0.01450000
C        0.00930000       0.12080000      -0.03620000
C        0.48140000      -0.78190000      -1.21630000
N        1.29940000      -1.89580000      -0.70570000
C        2.45170000      -1.47900000       0.09240000
C        1.18580000      -1.88210000       0.77960000
C        0.25290000      -0.75300000       1.22460000
C        1.09750000      -3.13770000       1.47360000
C        1.01270000      -4.16470000       2.09340000
H        1.76070000       1.44220000       0.14690000
H        0.48890000       2.05770000      -0.91090000
H        0.27710000       2.09700000       0.84340000
H       -1.06660000       0.29210000      -0.14160000
H       -0.37920000      -1.22700000      -1.72560000
H        1.05150000      -0.22200000      -1.96590000
H        3.28660000      -2.17320000       0.07660000
H        2.73230000      -0.42970000       0.11980000
H        0.67920000      -0.17700000       2.05190000
H       -0.68040000      -1.19310000       1.58590000
H        0.94260000      -5.08020000       2.62650000
