21
Properties=species:S:1:pos:R:3 gdb_92358=T pbc="F F F"
C        0.04520000       1.48110000       0.00460000
C        0.00500000      -0.03560000      -0.00950000
C        0.59230000      -0.68840000      -1.27350000
O        0.11130000      -2.04320000      -1.24870000
C       -0.72690000      -2.14650000      -0.08450000
C        0.18770000      -2.18430000       1.15080000
C        0.69150000      -0.70670000       1.22400000
O        2.09580000      -0.54460000       1.28650000
C       -1.36460000      -0.75380000       0.01510000
H        1.08050000       1.83570000       0.03960000
H       -0.43180000       1.90620000      -0.88500000
H       -0.47000000       1.87920000       0.88540000
H        0.24150000      -0.18700000      -2.18600000
H        1.68960000      -0.67660000      -1.29020000
H       -1.38640000      -3.00460000      -0.21770000
H       -0.34820000      -2.48150000       2.05730000
H        1.01520000      -2.88520000       1.00560000
H        0.31960000      -0.21660000       2.13030000
H        2.49930000      -1.15290000       0.65890000
H       -1.92130000      -0.59150000       0.94300000
H       -2.00130000      -0.51090000      -0.84000000
