19
Properties=species:S:1:pos:R:3 gdb_116286=T pbc="F F F"
O       -0.20260000       1.46930000       0.14850000
C       -0.03630000       0.06390000       0.25440000
C       -1.40740000      -0.55800000       0.01430000
C       -1.94700000      -0.33310000      -1.42460000
O       -2.13220000      -1.62230000      -2.00170000
C       -2.44420000      -2.50220000      -0.93970000
C       -1.46830000      -2.11110000       0.18500000
C       -0.12660000      -2.77910000      -0.04410000
O        0.60590000      -3.15540000       0.83610000
H        0.65540000       1.88620000       0.27020000
H        0.68510000      -0.30700000      -0.49200000
H        0.34080000      -0.22830000       1.24580000
H       -2.09170000      -0.10370000       0.73680000
H       -2.89960000       0.21410000      -1.39900000
H       -1.25100000       0.22450000      -2.05620000
H       -3.48650000      -2.38300000      -0.60200000
H       -2.31500000      -3.52650000      -1.30290000
H       -1.81230000      -2.38710000       1.18430000
H        0.14640000      -2.90860000      -1.11630000
