22
Properties=species:S:1:pos:R:3 gdb_60615=T pbc="F F F"
C        1.60870000      -0.42020000       0.86570000
C        0.55090000      -1.53500000       0.82630000
N       -0.69650000      -1.02040000       0.27520000
C       -1.93940000      -1.70390000       0.62870000
C       -1.66690000      -0.32610000       1.12880000
C       -1.46360000      -0.05920000       2.60520000
C        1.09420000      -2.68770000      -0.03700000
C        0.74810000      -2.69660000      -1.51150000
O        1.80310000      -3.52830000       0.46720000
H        2.55730000      -0.81500000       1.23790000
H        1.76400000       0.00070000      -0.13220000
H        1.28580000       0.38960000       1.52550000
H        0.44610000      -1.95680000       1.83710000
H       -2.63850000      -1.88170000      -0.18470000
H       -1.88410000      -2.50870000       1.36200000
H       -2.15290000       0.49590000       0.60450000
H       -1.00970000      -0.90510000       3.12670000
H       -0.83570000       0.82260000       2.77090000
H       -2.43290000       0.13580000       3.07620000
H        0.88980000      -1.70730000      -1.95560000
H        1.35760000      -3.44340000      -2.02190000
H       -0.31240000      -2.93830000      -1.63930000
