19
Properties=species:S:1:pos:R:3 gdb_74140=T pbc="F F F"
C       -0.08070000       1.56610000       0.09070000
C        0.00110000       0.02910000       0.02130000
C       -1.40560000      -0.59200000      -0.08490000
N        0.86050000      -0.38980000      -1.07730000
C        1.86320000      -1.27340000      -0.67440000
O        2.60230000      -1.87610000      -1.42580000
C        1.81260000      -1.28520000       0.79770000
C        0.76120000      -0.55330000       1.21360000
N        0.28830000      -0.34640000       2.48410000
H        0.91910000       1.99810000       0.17760000
H       -0.54550000       1.95740000      -0.81940000
H       -0.68950000       1.90550000       0.93690000
H       -1.92410000      -0.21020000      -0.97080000
H       -1.33600000      -1.68000000      -0.16130000
H       -2.01260000      -0.34720000       0.79200000
H        0.50770000      -0.45360000      -2.01920000
H        2.52400000      -1.82760000       1.40300000
H        0.91760000      -0.56190000       3.24200000
H       -0.25640000       0.48690000       2.64240000
