10
Properties=species:S:1:pos:R:3 gdb_128872=T pbc="F F F"
N        0.06900000      -3.70010000      -0.01860000
C        0.04370000      -2.53890000      -0.01180000
C        0.01460000      -1.17500000      -0.00400000
C       -0.00990000       0.03240000       0.00290000
C       -0.02910000       1.44660000       0.01090000
N       -1.15660000       2.12760000       0.02960000
O       -0.72730000       3.44550000       0.03110000
C        0.60980000       3.41480000       0.01310000
N        1.11420000       2.22500000      -0.00000000
H        1.12540000       4.36370000       0.01150000
