18
Properties=species:S:1:pos:R:3 gdb_34536=T pbc="F F F"
N       -0.00950000      -1.17740000       0.13010000
C       -0.03250000      -0.02000000       0.06650000
C       -0.01420000       1.40330000      -0.01560000
C       -1.16010000       2.10590000       0.05980000
C       -1.19930000       3.57670000       0.00460000
C       -0.33880000       4.38410000       0.97900000
C        0.06100000       4.28840000      -0.46020000
C        1.21510000       3.42250000      -0.92860000
C        1.33290000       2.08410000      -0.17400000
H       -2.10250000       1.57710000       0.16440000
H       -2.15790000       4.01050000      -0.25690000
H       -0.75010000       5.32120000       1.33740000
H        0.21580000       3.82610000       1.72470000
H       -0.10280000       5.17930000      -1.05930000
H        1.07120000       3.21310000      -1.99560000
H        2.16090000       3.96820000      -0.84010000
H        1.77760000       2.24500000       0.81610000
H        2.02280000       1.42120000      -0.70420000
