18
Properties=species:S:1:pos:R:3 gdb_6960=T pbc="F F F"
C        0.14690000       1.56020000       0.03910000
C       -0.06390000       0.03580000      -0.04010000
O       -1.44240000      -0.26740000      -0.01420000
C        0.65290000      -0.59640000      -1.24220000
C        2.11790000      -0.77340000      -0.77350000
C        2.01520000      -1.13600000       0.72330000
C        0.64190000      -0.63250000       1.15390000
O        0.10950000      -0.77540000       2.22740000
H        1.20360000       1.84190000      -0.01640000
H       -0.38320000       2.03210000      -0.79300000
H       -0.26250000       1.94640000       0.97720000
H       -1.67110000      -0.36860000       0.92160000
H        0.19020000      -1.56990000      -1.43760000
H        0.56830000       0.00250000      -2.15250000
H        2.64530000      -1.53410000      -1.35300000
H        2.67120000       0.16250000      -0.90020000
H        2.02990000      -2.21970000       0.88880000
H        2.80620000      -0.71590000       1.35110000
