22
Properties=species:S:1:pos:R:3 gdb_93927=T pbc="F F F"
C       -0.20980000       1.49420000       0.04140000
C        0.13210000       0.00710000       0.03020000
C        0.95560000      -0.45890000      -1.18490000
C        1.52950000      -1.81010000      -0.73650000
N        1.67710000      -1.64970000       0.71190000
C        1.00260000      -0.44960000       1.21220000
C        2.30660000      -2.50210000       1.57070000
C        2.93850000      -3.73820000       0.94750000
O        2.35850000      -2.27740000       2.77030000
H        0.69970000       2.10520000       0.01470000
H       -0.82190000       1.76550000      -0.82480000
H       -0.76900000       1.76760000       0.94210000
H       -0.80010000      -0.57360000       0.05130000
H        0.36780000      -0.53810000      -2.10290000
H        1.77090000       0.25080000      -1.37060000
H        0.83750000      -2.63030000      -0.97740000
H        2.48610000      -2.03740000      -1.21770000
H        1.73720000       0.32140000       1.48540000
H        0.43350000      -0.68420000       2.11500000
H        2.21390000      -4.31510000       0.36350000
H        3.75830000      -3.46580000       0.27380000
H        3.33190000      -4.35830000       1.75220000
