14
Properties=species:S:1:pos:R:3 gdb_18636=T pbc="F F F"
O        0.08760000       1.31280000      -0.19230000
C       -0.01850000      -0.06430000      -0.06570000
C       -0.44130000      -0.64320000       1.23740000
O       -0.92060000       0.33510000       2.14200000
C       -2.21180000       0.79250000       1.73930000
C       -2.56210000       0.09070000       0.42130000
O       -3.61580000       0.17780000      -0.15280000
C       -1.39190000      -0.76220000       0.06300000
H        0.16700000       1.66490000       0.70470000
H        0.69420000      -0.61460000      -0.67430000
H        0.05130000      -1.47770000       1.72370000
H       -2.95450000       0.53720000       2.50460000
H       -2.20940000       1.87980000       1.60310000
H       -1.56460000      -1.67020000      -0.49940000
