17
Properties=species:S:1:pos:R:3 gdb_82716=T pbc="F F F"
C       -0.21820000       1.49600000       0.11830000
N        0.11370000       0.08840000      -0.01620000
C        0.73300000      -0.45510000      -1.24080000
C        2.07880000       0.20920000      -1.66100000
N        2.76570000      -0.46990000      -0.49680000
C        1.57610000      -1.38810000      -0.33130000
C        1.09950000      -0.56660000       0.89290000
C        2.41710000       0.21670000       0.73080000
O        2.91990000       1.17560000       1.23870000
H        0.64600000       2.17600000       0.06760000
H       -0.92330000       1.76570000      -0.67480000
H       -0.71340000       1.65580000       1.08140000
H        0.02000000      -0.74110000      -2.01740000
H        2.46380000      -0.17570000      -2.61040000
H        2.15870000       1.29990000      -1.65130000
H        1.71020000      -2.46290000      -0.39990000
H        0.70890000      -0.89440000       1.85800000
