15
Properties=species:S:1:pos:R:3 gdb_48765=T pbc="F F F"
O       -0.01210000       0.00730000       0.18610000
C        0.03260000       1.19010000      -0.05140000
C        1.28270000       1.97210000      -0.03130000
C        1.27100000       3.47020000       0.26870000
C        1.64580000       3.00620000      -1.10910000
N        3.00270000       2.68960000      -1.40030000
C        3.52510000       1.66160000      -0.61810000
O        4.64700000       1.22040000      -0.66430000
N        2.49780000       1.27540000       0.24740000
H       -0.87960000       1.78030000      -0.28630000
H        0.29620000       3.93510000       0.37660000
H        2.04620000       3.82900000       0.93580000
H        0.99060000       3.21120000      -1.94990000
H        3.62210000       3.29000000      -1.91680000
H        2.43580000       0.30990000       0.53490000
