18
Properties=species:S:1:pos:R:3 gdb_95658=T pbc="F F F"
O        0.03330000       1.44110000      -0.01010000
C        0.05420000       0.03020000      -0.00310000
C        0.84210000      -0.54520000       1.19230000
N        0.81890000      -2.00670000       1.25390000
C       -0.54320000      -2.55300000       1.32200000
C       -1.38090000      -2.05890000       0.14700000
O       -1.95680000      -2.78380000      -0.63170000
C       -1.37880000      -0.53200000      -0.01000000
O       -2.02770000       0.06710000       1.12050000
H       -0.63580000       1.69700000       0.63810000
H        0.54560000      -0.28250000      -0.93330000
H        1.87940000      -0.20340000       1.13860000
H        0.41490000      -0.15340000       2.12300000
H        1.29840000      -2.39600000       0.44690000
H       -0.51400000      -3.64460000       1.31020000
H       -0.99920000      -2.22370000       2.26330000
H       -1.88990000      -0.26530000      -0.94240000
H       -2.97670000      -0.06100000       1.02760000
