17
Properties=species:S:1:pos:R:3 gdb_46932=T pbc="F F F"
N       -0.07800000       1.27030000       0.18940000
C        0.01330000       0.02300000      -0.01010000
O        1.21450000      -0.58750000      -0.22170000
C        1.21380000      -1.90150000      -0.79850000
C        0.10410000      -2.76090000      -0.24540000
C       -0.14030000      -2.70040000       1.28810000
C       -1.42860000      -1.96620000       0.94480000
C       -1.21590000      -0.82030000       0.01990000
N       -1.26920000      -2.18990000      -0.54330000
H        0.84770000       1.70120000       0.14140000
H        1.11830000      -1.81880000      -1.88970000
H        2.19590000      -2.32290000      -0.56660000
H        0.17420000      -3.77180000      -0.65130000
H       -0.32390000      -3.68850000       1.71260000
H        0.59080000      -2.17280000       1.90590000
H       -2.38600000      -2.10090000       1.43770000
H       -2.10450000      -0.24330000      -0.20870000
