17
Properties=species:S:1:pos:R:3 gdb_108708=T pbc="F F F"
C       -0.23360000       1.52070000      -0.06870000
C        0.12600000       0.02450000       0.01410000
C        0.80870000      -0.49020000      -1.21440000
C        2.06490000      -0.97780000      -1.27970000
C        2.41670000      -1.40690000      -2.63820000
O        3.44430000      -1.88180000      -3.05770000
C        1.14700000      -1.12510000      -3.49660000
O        1.02970000      -1.35360000      -4.66790000
C        0.10760000      -0.51350000      -2.55710000
H        0.66280000       2.13180000      -0.21000000
H       -0.91860000       1.72670000      -0.89620000
H       -0.72170000       1.84190000       0.85530000
H        0.76320000      -0.15570000       0.88590000
H       -0.79750000      -0.55140000       0.16780000
H        2.74840000      -1.06130000      -0.44340000
H       -0.80980000      -1.11530000      -2.54180000
H       -0.18370000       0.48460000      -2.90510000
