23
Properties=species:S:1:pos:R:3 gdb_103840=T pbc="F F F"
C       -0.11290000       1.61900000      -0.02010000
C       -0.04520000       0.10440000       0.03030000
C       -1.29760000      -0.57930000      -0.47020000
O       -1.47580000      -0.25780000      -1.84570000
C        1.26980000      -0.58690000      -0.25450000
C        0.70020000      -0.60460000       1.14610000
C        1.36090000       0.12190000       2.27530000
C        0.74850000       0.10230000       3.65570000
C        2.02450000      -0.65670000       3.38580000
H        0.84240000       2.08300000       0.23700000
H       -0.38460000       1.94300000      -1.02860000
H       -0.86950000       2.00530000       0.67370000
H       -1.20630000      -1.66850000      -0.33140000
H       -2.16360000      -0.24270000       0.12400000
H       -2.34420000      -0.56990000      -2.11590000
H        1.26130000      -1.50320000      -0.83540000
H        2.13550000       0.04280000      -0.43490000
H        0.26170000      -1.55230000       1.45570000
H        1.85850000       1.04550000       1.99630000
H        0.79940000       1.00260000       4.25840000
H       -0.16200000      -0.47180000       3.79470000
H        1.97130000      -1.73980000       3.34380000
H        2.95040000      -0.27540000       3.80230000
