15
Properties=species:S:1:pos:R:3 gdb_42857=T pbc="F F F"
O       -0.21510000      -0.04030000       0.14630000
C       -0.11620000       1.13310000       0.01870000
C       -0.94200000       2.45030000      -0.06820000
O       -0.03280000       2.90890000       1.01650000
C        0.91170000       2.30420000       0.04210000
C        0.09600000       2.98500000      -1.09050000
C        0.13920000       2.45970000      -2.52680000
C       -0.94900000       2.99440000      -3.33730000
C       -1.85680000       3.45030000      -3.97880000
H       -2.00310000       2.66430000       0.03280000
H        1.97410000       2.34880000       0.27200000
H        0.17160000       4.07240000      -1.02580000
H        1.10350000       2.72870000      -2.97660000
H        0.09690000       1.36240000      -2.52990000
H       -2.65430000       3.84500000      -4.55840000
