17
Properties=species:S:1:pos:R:3 gdb_55207=T pbc="F F F"
C        0.06680000       1.49710000       0.00770000
C        0.02150000      -0.00960000       0.00320000
O        1.02020000      -0.70330000      -0.00770000
N       -1.22500000      -0.63690000       0.01170000
C       -1.26090000      -2.09950000       0.00710000
C       -2.72870000      -2.39600000       0.01830000
C       -3.43310000      -1.26380000       0.02800000
C       -2.52650000      -0.09760000       0.02430000
N       -2.79150000       1.15110000       0.03080000
H        1.11600000       1.79290000      -0.00030000
H       -0.46010000       1.90730000      -0.85670000
H       -0.44520000       1.90150000       0.88370000
H       -0.74900000      -2.50090000      -0.87610000
H       -0.73440000      -2.50680000       0.87890000
H       -3.11710000      -3.40600000       0.01820000
H       -4.50920000      -1.15230000       0.03730000
H       -3.80110000       1.28730000       0.03960000
