14
Properties=species:S:1:pos:R:3 gdb_14632=T pbc="F F F"
O        1.00610000       0.18750000      -0.61570000
C        0.83500000       1.36610000      -0.62440000
O        1.27140000       2.16790000       0.37630000
C        1.03380000       3.56970000       0.27420000
C        2.35130000       4.30450000       0.09410000
O        2.89150000       4.02100000      -1.19430000
C        4.03200000       3.29420000      -1.26880000
O        4.53680000       3.00740000      -2.30870000
H        0.31090000       1.92520000      -1.42240000
H        0.36450000       3.78930000      -0.56640000
H        0.55020000       3.89440000       1.20110000
H        2.18660000       5.38490000       0.15630000
H        3.05480000       4.01080000       0.88260000
H        4.42640000       3.01450000      -0.27370000
