15
Properties=species:S:1:pos:R:3 gdb_9231=T pbc="F F F"
C        0.22260000       1.17210000      -0.40180000
O       -0.08400000      -0.10710000       0.15660000
C       -1.38740000      -0.42450000       0.25070000
N       -1.53210000      -1.71890000       0.69310000
N       -2.29330000       0.41040000      -0.09340000
C       -3.67690000      -0.02060000      -0.06700000
C       -4.17030000      -0.40630000       1.27000000
N       -4.49620000      -0.74490000       2.32700000
H        1.31170000       1.22660000      -0.41920000
H       -0.18380000       1.26170000      -1.41230000
H       -0.19310000       1.97290000       0.21440000
H       -0.68750000      -2.12490000       1.06760000
H       -2.35710000      -1.91620000       1.24130000
H       -4.30540000       0.79930000      -0.42920000
H       -3.85990000      -0.87770000      -0.73470000
