14
Properties=species:S:1:pos:R:3 gdb_33596=T pbc="F F F"
N        0.06820000      -1.05810000      -0.04180000
C        0.01600000       0.09870000      -0.03280000
C       -0.05400000       1.51460000       0.01820000
C        0.13800000       2.43960000      -1.19890000
C        1.06600000       2.54840000      -0.02120000
C        0.06040000       3.55720000       0.61000000
C       -0.77390000       3.60580000      -0.71210000
O       -1.93360000       3.03480000      -0.07270000
C       -1.00670000       2.44170000       0.84750000
H        0.31340000       2.04700000      -2.19040000
H        2.13170000       2.40170000       0.06680000
H        0.25560000       4.39520000       1.27190000
H       -0.97720000       4.46420000      -1.34850000
H       -1.43530000       2.09780000       1.78580000
