16
Properties=species:S:1:pos:R:3 gdb_16565=T pbc="F F F"
C        0.01270000       1.56300000      -0.01140000
O        1.39540000       1.91880000      -0.10340000
C        2.09590000       0.70390000       0.13920000
O        1.32060000      -0.28860000      -0.49850000
C        0.01930000       0.00640000       0.01820000
C       -0.08530000      -0.56160000       1.44090000
C        1.14430000      -0.17330000       2.22920000
C        2.17440000       0.42180000       1.63010000
H       -0.44180000       1.98890000       0.89090000
H       -0.50280000       1.95910000      -0.89160000
H        3.07200000       0.76260000      -0.34640000
H       -0.72000000      -0.43370000      -0.65370000
H       -0.99220000      -0.18250000       1.92990000
H       -0.18830000      -1.65500000       1.40700000
H        1.16240000      -0.39810000       3.29210000
H        3.05790000       0.74380000       2.17110000
