20
Properties=species:S:1:pos:R:3 gdb_33262=T pbc="F F F"
C       -0.02790000       1.37790000      -0.01060000
O        0.01020000      -0.02980000       0.01200000
C        0.68080000      -0.54540000       1.13640000
C        0.64640000      -2.07150000       1.02940000
N        1.31160000      -2.71930000       2.14120000
C        2.65350000      -3.01220000       2.20830000
C        2.92160000      -3.53530000       3.45160000
C        1.69550000      -3.55780000       4.17210000
C        0.72570000      -3.04750000       3.34120000
H        0.98350000       1.81290000      -0.03750000
H       -0.56520000       1.67570000      -0.91410000
H       -0.55310000       1.78580000       0.86730000
H        1.72580000      -0.19520000       1.17350000
H        0.19560000      -0.22380000       2.07300000
H       -0.39370000      -2.40710000       0.98850000
H        1.12590000      -2.37880000       0.09580000
H        3.29490000      -2.82800000       1.36060000
H        3.88460000      -3.87690000       3.79890000
H        1.53990000      -3.92000000       5.17680000
H       -0.33160000      -2.89450000       3.49170000
