23
Properties=species:S:1:pos:R:3 gdb_121366=T pbc="F F F"
C        0.07540000       1.35630000      -0.08360000
O        0.00840000      -0.04720000      -0.05980000
C       -1.32050000      -0.53130000      -0.00890000
C       -1.26820000      -2.04920000       0.05890000
C       -0.59560000      -2.61720000       1.33280000
C       -1.26700000      -3.99730000       1.59090000
C       -2.31660000      -4.16650000       0.46590000
C       -2.64250000      -2.73330000       0.02570000
O       -3.47570000      -2.06670000       0.97500000
H        1.13160000       1.63590000      -0.11880000
H       -0.43180000       1.77660000      -0.96760000
H       -0.38110000       1.80470000       0.81360000
H       -1.84620000      -0.13020000       0.87060000
H       -1.88010000      -0.20150000      -0.90200000
H       -0.71650000      -2.39960000      -0.82270000
H        0.48640000      -2.69220000       1.20840000
H       -0.77070000      -1.94250000       2.17580000
H       -0.54510000      -4.81830000       1.59040000
H       -1.75370000      -4.00560000       2.56950000
H       -1.89290000      -4.71260000      -0.38520000
H       -3.21010000      -4.71550000       0.78390000
H       -3.10040000      -2.69410000      -0.97400000
H       -4.29420000      -2.56610000       1.05240000
