15
Properties=species:S:1:pos:R:3 gdb_9086=T pbc="F F F"
O       -0.43860000       1.23000000       0.00710000
C        0.09200000      -0.09440000      -0.10300000
C        1.08490000      -0.17510000      -1.27910000
N        0.46170000       0.32090000      -2.48700000
C        0.40590000      -0.39340000      -3.64320000
O        0.92250000      -1.47550000      -3.82420000
C        0.70990000      -0.54400000       1.14220000
C        1.25960000      -0.87510000       2.15850000
H        0.19970000       1.75780000       0.50050000
H       -0.77250000      -0.72560000      -0.33920000
H        1.98060000       0.40880000      -1.02800000
H        1.39280000      -1.20630000      -1.46250000
H       -0.05930000       1.18090000      -2.40890000
H       -0.17090000       0.14010000      -4.42430000
H        1.72700000      -1.18380000       3.06130000
