20
Properties=species:S:1:pos:R:3 gdb_69522=T pbc="F F F"
C        0.04260000       1.52020000       0.03750000
C       -0.06240000       0.02390000       0.05200000
N        1.11410000      -0.78480000      -0.29120000
C        0.49910000      -0.98760000       1.02850000
C        1.33510000      -0.81990000       2.26300000
C       -0.78530000      -1.79640000       0.90880000
O       -0.84280000      -3.17430000       0.75950000
C       -1.99020000      -0.96800000       1.28290000
C       -1.34280000      -0.78440000      -0.07880000
H        1.02520000       1.84390000       0.39050000
H       -0.08960000       1.90990000      -0.97860000
H       -0.72710000       1.97420000       0.67070000
H        0.88910000      -1.54230000      -0.93380000
H        2.04640000       0.00100000       2.14090000
H        0.71010000      -0.61370000       3.13890000
H        1.91380000      -1.72830000       2.46890000
H       -0.90890000      -3.57210000       1.63430000
H       -2.93080000      -1.51220000       1.27430000
H       -1.92750000      -0.18270000       2.03200000
H       -1.87790000      -0.99060000      -0.99920000
