13
Properties=species:S:1:pos:R:3 gdb_25039=T pbc="F F F"
O        0.08630000       0.02500000       0.06680000
C        0.02830000       1.20850000       0.01630000
O       -1.09080000       1.95160000      -0.25870000
C       -0.72160000       3.27880000      -0.21900000
C        0.57560000       3.36410000       0.07630000
O        1.06580000       2.07810000       0.22710000
C        1.48100000       4.49930000       0.26190000
C        2.75510000       4.37440000       0.98900000
O        2.73220000       4.45560000      -0.43430000
H       -1.48310000       4.01240000      -0.41510000
H        0.97780000       5.46490000       0.23980000
H        3.15320000       5.24600000       1.50600000
H        3.04070000       3.40700000       1.39560000
