20
Properties=species:S:1:pos:R:3 gdb_109820=T pbc="F F F"
C       -0.64420000       0.85950000      -1.66320000
N       -0.12380000      -0.21820000      -0.83200000
C        1.29020000      -0.25700000      -0.46120000
C        2.29700000       0.77880000      -0.91360000
O        2.60910000       0.65290000      -2.29560000
C        0.22850000      -0.00140000       0.56570000
C        0.07680000       1.33780000       1.28500000
C       -1.28810000       1.55900000       1.75440000
C       -2.41520000       1.72010000       2.13860000
H       -0.26420000       1.86600000      -1.43940000
H       -0.39680000       0.63990000      -2.70490000
H       -1.73260000       0.88280000      -1.55690000
H        1.70570000      -1.26820000      -0.49430000
H        1.92810000       1.79940000      -0.79550000
H        3.20180000       0.68950000      -0.29070000
H        2.89650000      -0.25320000      -2.45080000
H       -0.05420000      -0.83450000       1.20880000
H        0.76100000       1.34510000       2.14390000
H        0.38100000       2.17540000       0.65130000
H       -3.41020000       1.87100000       2.47720000
