21
Properties=species:S:1:pos:R:3 gdb_84015=T pbc="F F F"
C       -0.19960000       1.52550000      -0.08870000
C        0.00660000       0.02890000      -0.00260000
C        1.36620000      -0.60390000      -0.20910000
O        2.47200000       0.23970000      -0.40080000
C        3.17170000       0.49840000       0.78970000
O        2.35170000       1.08300000       1.76260000
C        1.38880000       0.15350000       2.25200000
C        0.71170000      -0.66130000       1.15590000
C        0.15160000      -1.98400000       1.64090000
H        0.66450000       2.07280000       0.28870000
H       -0.36750000       1.82900000      -1.12760000
H       -1.07780000       1.82990000       0.49130000
H       -0.81480000      -0.55240000      -0.41690000
H        1.43730000      -1.51640000      -0.79810000
H        3.61940000      -0.43310000       1.18250000
H        3.95150000       1.22140000       0.54360000
H        1.88390000      -0.54400000       2.94810000
H        0.66530000       0.74080000       2.82640000
H       -0.64000000      -1.82970000       2.38460000
H       -0.28290000      -2.55570000       0.81570000
H        0.92870000      -2.60300000       2.10460000
