19
Properties=species:S:1:pos:R:3 gdb_107356=T pbc="F F F"
C        0.08130000       1.51640000       0.19990000
C        0.02340000       0.00970000      -0.08160000
C       -1.38390000      -0.54040000      -0.08800000
C       -2.07410000      -0.98520000       1.19500000
C       -1.72350000      -1.99620000       0.11370000
N       -2.70290000      -2.30150000      -0.88730000
C       -3.14700000      -1.13930000      -1.51770000
O       -4.12320000      -1.02390000      -2.22210000
N       -2.23800000      -0.13950000      -1.17740000
H        1.11610000       1.87010000       0.22170000
H       -0.44200000       2.08750000      -0.57450000
H       -0.37880000       1.75670000       1.16400000
H        0.48900000      -0.20610000      -1.05060000
H        0.60330000      -0.52750000       0.67790000
H       -1.46880000      -1.00740000       2.09510000
H       -3.11840000      -0.73240000       1.34490000
H       -0.95280000      -2.73880000       0.28860000
H       -3.38540000      -3.03190000      -0.75930000
H       -2.55520000       0.81090000      -1.28400000
