25
Properties=species:S:1:pos:R:3 gdb_63636=T pbc="F F F"
C        0.00200000       1.54430000      -0.22930000
C       -0.01060000       0.03670000      -0.05510000
C       -1.25120000      -0.62750000      -0.62500000
C        1.29590000      -0.71620000      -0.16530000
C        0.60370000      -0.60170000       1.17850000
C        1.21380000       0.16900000       2.31680000
C        0.31800000       0.58690000       3.52160000
C        1.50390000       0.26350000       4.46880000
C        2.12720000      -0.58690000       3.32960000
H        0.91930000       2.00010000       0.15120000
H       -0.07790000       1.80730000      -1.29100000
H       -0.84420000       2.01160000       0.28880000
H       -1.34620000      -0.43040000      -1.69980000
H       -1.22410000      -1.71310000      -0.48750000
H       -2.16000000      -0.25210000      -0.13910000
H        1.30460000      -1.67820000      -0.66780000
H        2.20260000      -0.13550000      -0.30870000
H        0.09390000      -1.50580000       1.50990000
H        1.75020000       1.04670000       1.94190000
H       -0.08950000       1.60120000       3.52850000
H       -0.50840000      -0.11900000       3.65760000
H        2.10380000       1.15280000       4.68400000
H        1.27930000      -0.23750000       5.41330000
H        1.83600000      -1.63960000       3.40930000
H        3.20860000      -0.53790000       3.17850000
