18
Properties=species:S:1:pos:R:3 gdb_16947=T pbc="F F F"
C       -0.01540000       1.48730000       0.05160000
C       -0.06590000      -0.00040000      -0.02600000
C       -0.07920000      -0.82300000      -1.07830000
C        0.01110000      -2.23080000      -0.50480000
C        1.47950000      -2.43300000      -0.00270000
C        1.49390000      -1.47530000       1.22470000
C        0.02640000      -0.93330000       1.18400000
O       -0.68880000      -2.09060000       0.74020000
H        0.89700000       1.82840000       0.55840000
H       -0.03790000       1.94390000      -0.94170000
H       -0.85850000       1.88560000       0.63020000
H       -0.04220000      -0.56760000      -2.12940000
H       -0.40770000      -3.04680000      -1.09270000
H        1.63490000      -3.47080000       0.30170000
H        2.22160000      -2.18130000      -0.76340000
H        1.66730000      -2.02230000       2.15420000
H        2.23890000      -0.67930000       1.15130000
H       -0.37400000      -0.56850000       2.13030000
