25
Properties=species:S:1:pos:R:3 gdb_112835=T pbc="F F F"
C       -0.06230000       1.56120000      -0.05610000
C        0.02420000       0.03160000      -0.03750000
C        0.70700000      -0.53770000       1.21280000
C       -0.02740000      -0.24430000       2.54470000
C        0.40410000      -1.36080000       3.52600000
C       -0.59630000      -1.61940000       4.65450000
C        0.68390000      -2.55960000       2.62280000
C       -0.33710000      -2.89610000       1.56180000
C        0.86970000      -2.05650000       1.21160000
H        0.93330000       2.01440000       0.01420000
H       -0.52550000       1.92100000      -0.98020000
H       -0.65710000       1.94090000       0.78110000
H       -0.98350000      -0.39680000      -0.11950000
H        0.57150000      -0.31000000      -0.92570000
H        1.71660000      -0.10400000       1.27390000
H        0.19240000       0.75220000       2.93720000
H       -1.11330000      -0.28240000       2.38970000
H        1.36320000      -1.06790000       3.97650000
H       -1.56180000      -1.94730000       4.25340000
H       -0.23700000      -2.39940000       5.33440000
H       -0.76930000      -0.71500000       5.24820000
H        1.29380000      -3.36600000       3.01740000
H       -0.34850000      -3.91730000       1.19640000
H       -1.32000000      -2.43690000       1.59540000
H        1.61680000      -2.48890000       0.55360000
