18
Properties=species:S:1:pos:R:3 gdb_33729=T pbc="F F F"
C        0.01980000      -1.19370000      -0.05460000
C        0.04580000       0.00870000      -0.03180000
C        0.07090000       1.44750000      -0.00300000
C       -0.33680000       2.29770000       1.27210000
C        0.42320000       3.40130000       0.48080000
C        1.39580000       2.27130000       0.05170000
N       -0.55630000       3.63040000      -0.63220000
C       -0.13380000       3.17950000      -1.97230000
C       -0.77590000       2.21870000      -1.04230000
H       -0.00010000      -2.25500000      -0.07360000
H       -1.40340000       2.45880000       1.43970000
H        0.16660000       1.96590000       2.18160000
H        0.76570000       4.32850000       0.93650000
H        2.02040000       1.94550000       0.88370000
H        2.00870000       2.36090000      -0.84430000
H       -0.74580000       3.59840000      -2.76650000
H        0.91600000       3.09910000      -2.22770000
H       -1.79790000       1.88470000      -1.19720000
