18
Properties=species:S:1:pos:R:3 gdb_44872=T pbc="F F F"
N       -0.07520000       1.21280000       0.01990000
C       -0.07110000      -0.04570000       0.00380000
O        1.03600000      -0.87470000      -0.01270000
C        0.41160000      -2.19780000      -0.00630000
C       -0.69770000      -2.03560000      -1.07110000
C       -1.22920000      -1.01630000       0.00270000
C       -0.68260000      -2.02790000       1.04830000
C       -1.42500000      -3.07330000       1.80910000
C       -0.63020000      -1.99580000       2.53450000
H        0.88060000       1.57480000       0.02200000
H        1.18080000      -2.96700000      -0.00350000
H       -0.39770000      -1.64340000      -2.04490000
H       -1.33830000      -2.91260000      -1.16680000
H       -2.23370000      -0.60350000       0.01280000
H       -2.50840000      -3.01650000       1.84270000
H       -1.03320000      -4.08580000       1.81730000
H        0.29380000      -2.28620000       3.02360000
H       -1.18310000      -1.21730000       3.04980000
