17
Properties=species:S:1:pos:R:3 gdb_83981=T pbc="F F F"
O        0.48950000       1.01040000       0.76300000
C        0.08750000      -0.18660000       0.15940000
C       -1.43210000      -0.57200000       0.11310000
C       -2.44120000       0.58890000       0.10160000
C       -2.62780000       0.92450000      -1.39680000
O       -2.33510000      -0.27860000      -2.11590000
C       -1.31720000      -0.93180000      -1.41230000
C        0.05000000      -0.18060000      -1.37240000
O        0.64480000       0.50860000      -2.15310000
H        0.88380000       1.55380000       0.06770000
H        0.66680000      -1.03490000       0.55220000
H       -1.70740000      -1.37580000       0.79360000
H       -3.38590000       0.25920000       0.53970000
H       -2.07800000       1.44650000       0.67230000
H       -3.64620000       1.22050000      -1.65640000
H       -1.94320000       1.72450000      -1.71040000
H       -1.28140000      -1.98300000      -1.70350000
