15
Properties=species:S:1:pos:R:3 gdb_44111=T pbc="F F F"
O       -0.14400000       0.03660000       0.08830000
C       -0.07480000       1.22900000      -0.00850000
N       -1.21900000       2.09370000      -0.25910000
C       -0.65800000       3.31010000       0.20710000
N       -0.76970000       3.74810000       1.39950000
C        0.60850000       4.08870000       1.82350000
C        1.50730000       3.47460000       0.74480000
C        1.17780000       2.10330000      -0.02510000
C        0.69450000       3.44900000      -0.48230000
H       -2.05430000       1.77200000       0.21860000
H        0.80260000       5.16730000       1.91060000
H        0.73750000       3.65000000       2.81830000
H        2.56470000       3.71660000       0.72140000
H        2.06130000       1.62740000      -0.43650000
H        0.84350000       3.90430000      -1.45320000
