13
Properties=species:S:1:pos:R:3 gdb_937=T pbc="F F F"
C        0.01340000       1.50560000      -0.00010000
C        0.01130000       0.00200000       0.01070000
N        0.16800000      -0.62690000      -1.16170000
C        0.16380000      -1.95880000      -1.13510000
C        0.00520000      -2.67740000       0.04730000
N       -0.15180000      -2.06450000       1.22120000
C       -0.14720000      -0.73200000       1.19170000
H        0.95610000       1.88310000      -0.40880000
H       -0.78820000       1.88390000      -0.64230000
H       -0.12090000       1.91480000       1.00410000
H        0.29090000      -2.47150000      -2.08570000
H        0.00460000      -3.76420000       0.04820000
H       -0.27440000      -0.22090000       2.14330000
