22
Properties=species:S:1:pos:R:3 gdb_107683=T pbc="F F F"
O        0.12610000       1.23410000      -0.62320000
C        0.04750000       0.08440000       0.20330000
C       -1.35990000      -0.48240000       0.21120000
C       -2.39600000       0.36500000       0.93250000
C       -3.77280000      -0.30420000       1.04330000
C       -3.63430000      -1.72680000       1.59640000
C       -2.80320000      -2.63190000       0.66970000
C       -1.56760000      -1.95330000       0.08610000
N       -1.69850000      -1.07580000      -1.10110000
H       -0.19020000       0.94610000      -1.48870000
H        0.75230000      -0.69260000      -0.12890000
H        0.34500000       0.40390000       1.20820000
H       -2.02100000       0.56510000       1.94550000
H       -2.46460000       1.33960000       0.43590000
H       -4.41560000       0.29800000       1.69380000
H       -4.27540000      -0.32770000       0.06590000
H       -3.14540000      -1.66960000       2.57780000
H       -4.61870000      -2.17660000       1.76460000
H       -2.49070000      -3.52690000       1.21810000
H       -3.42820000      -2.99440000      -0.15790000
H       -0.68250000      -2.58460000       0.03290000
H       -2.68590000      -0.93580000      -1.30450000
