18
Properties=species:S:1:pos:R:3 gdb_8872=T pbc="F F F"
C       -0.02850000       1.54940000      -0.03430000
C        0.04200000       0.01790000      -0.02160000
N        0.67040000      -0.57440000      -1.20330000
C        2.12150000      -0.49490000      -1.24860000
C       -0.09750000      -0.70560000      -2.33750000
N       -1.29860000      -0.26180000      -2.40440000
C        0.46470000      -1.55050000      -3.46980000
O       -0.06430000      -1.59380000      -4.55070000
H        0.96560000       2.00420000      -0.09600000
H       -0.62740000       1.89060000      -0.88090000
H       -0.49770000       1.90560000       0.88820000
H        0.60860000      -0.32970000       0.85070000
H       -0.96900000      -0.39030000       0.04170000
H        2.51970000      -0.95380000      -2.15320000
H        2.47730000       0.54470000      -1.22920000
H        2.55170000      -1.01550000      -0.38580000
H       -1.69810000      -0.55320000      -3.29820000
H        1.34490000      -2.18420000      -3.24250000
