19
Properties=species:S:1:pos:R:3 gdb_12366=T pbc="F F F"
C       -0.09990000       1.60480000      -0.08390000
C        0.01210000       0.07540000      -0.01070000
C        0.74680000      -0.49090000      -1.22660000
O        2.13580000      -0.11980000      -1.22550000
C        2.72580000      -0.08390000      -0.00620000
N        2.21310000      -0.23350000       1.13880000
C        0.76260000      -0.44710000       1.23780000
C        0.26960000       0.13500000       2.56340000
H        0.88150000       2.08540000      -0.03590000
H       -0.57430000       1.90880000      -1.02290000
H       -0.70550000       1.99880000       0.73580000
H       -0.99990000      -0.34930000      -0.01410000
H        0.68510000      -1.58650000      -1.24260000
H        0.34250000      -0.10890000      -2.16770000
H        3.79040000       0.11500000      -0.12060000
H        0.60190000      -1.53440000       1.28240000
H        0.47210000       1.20770000       2.62570000
H       -0.80700000      -0.02440000       2.68750000
H        0.79260000      -0.34740000       3.39310000
