19
Properties=species:S:1:pos:R:3 gdb_46791=T pbc="F F F"
O       -0.03080000       0.10110000       0.79720000
C       -0.03130000       1.13140000       0.17930000
C       -1.31300000       1.92450000      -0.06680000
C       -1.64710000       2.42170000      -1.48670000
C       -0.50570000       3.15080000      -2.20500000
C        0.66980000       2.19820000      -2.56940000
C        1.35570000       2.60640000      -1.24430000
C        0.46970000       3.88050000      -1.23360000
O        1.16960000       1.65690000      -0.19040000
H       -2.11720000       1.28500000       0.30060000
H       -1.26480000       2.78480000       0.61210000
H       -1.97340000       1.57690000      -2.10550000
H       -2.51190000       3.08870000      -1.39640000
H       -0.90570000       3.74790000      -3.02810000
H        0.45060000       1.13400000      -2.69530000
H        1.23640000       2.54920000      -3.43560000
H        2.43520000       2.75880000      -1.25710000
H        0.99890000       4.69730000      -1.73170000
H        0.09940000       4.24530000      -0.27380000
