25
Properties=species:S:1:pos:R:3 gdb_112612=T pbc="F F F"
C       -0.32310000       1.41840000      -0.04000000
C        0.06840000      -0.06350000      -0.00450000
C        0.84300000      -0.50010000       1.24410000
C        2.19220000       0.21380000       1.36850000
C        0.04290000      -0.47560000       2.59030000
C        0.56140000      -1.90420000       2.90580000
C       -0.43250000      -2.90400000       3.45740000
O        0.21380000      -4.16650000       3.54440000
C        0.99580000      -2.04560000       1.42270000
H        0.55240000       2.07270000      -0.08990000
H       -0.94440000       1.63610000      -0.91440000
H       -0.89650000       1.69850000       0.85070000
H       -0.84230000      -0.67250000      -0.07420000
H        0.66380000      -0.30730000      -0.89550000
H        2.07070000       1.29590000       1.48310000
H        2.75160000      -0.14600000       2.23860000
H        2.81150000       0.03580000       0.48130000
H        0.28780000       0.31610000       3.30380000
H       -1.03980000      -0.46290000       2.42010000
H        1.43080000      -1.87700000       3.56970000
H       -0.78970000      -2.56810000       4.44570000
H       -1.31140000      -2.95190000       2.79200000
H       -0.42450000      -4.81100000       3.86350000
H        0.25900000      -2.60420000       0.83570000
H        1.98360000      -2.47120000       1.22820000
