19
Properties=species:S:1:pos:R:3 gdb_88737=T pbc="F F F"
C       -0.78720000       1.01650000       0.62520000
C        0.07380000      -0.12210000       0.14460000
O        1.33450000       0.22370000      -0.43280000
C        1.34340000      -0.55350000       0.76880000
C        1.99790000       0.09670000       1.95900000
C        1.27380000       0.52970000       3.19120000
C        2.20740000      -0.67190000       3.26490000
C        1.58240000      -2.00170000       3.43860000
O        2.07780000      -2.92240000       4.03970000
H       -0.20290000       1.75320000       1.17910000
H       -1.24610000       1.51870000      -0.23280000
H       -1.59650000       0.64850000       1.26530000
H       -0.46470000      -0.88840000      -0.41840000
H        1.64380000      -1.58910000       0.59620000
H        2.85540000       0.70040000       1.67540000
H        1.58680000       1.43500000       3.69830000
H        0.21210000       0.31790000       3.26150000
H        3.16240000      -0.55760000       3.76500000
H        0.57380000      -2.09750000       2.97020000
