19
Properties=species:S:1:pos:R:3 gdb_36350=T pbc="F F F"
N       -0.00350000      -1.07010000      -0.68680000
C       -0.02000000       0.00620000      -0.26680000
C       -0.01390000       1.36350000       0.27980000
C        1.37540000       1.98120000       0.26470000
N        1.76050000       2.65670000      -0.98450000
C        1.58370000       3.44830000       0.22640000
C        0.55950000       4.57480000       0.41500000
C        1.49290000       5.16200000       1.51560000
C        2.63830000       4.22650000       1.02430000
H       -0.69350000       1.98500000      -0.31100000
H       -0.40510000       1.32680000       1.30390000
H        2.13230000       1.39200000       0.77950000
H        2.74590000       2.51090000      -1.19040000
H        0.49630000       5.21060000      -0.47260000
H       -0.45370000       4.29600000       0.71620000
H        1.68630000       6.23490000       1.47280000
H        1.15690000       4.90720000       2.52310000
H        3.20490000       3.67710000       1.78080000
H        3.34360000       4.74700000       0.36780000
