25
Properties=species:S:1:pos:R:3 gdb_121906=T pbc="F F F"
C       -0.03560000       1.56290000      -0.04770000
C        0.01880000       0.02980000       0.01940000
C        0.86650000      -0.42380000       1.21720000
C       -1.40740000      -0.56390000       0.03630000
O       -2.17450000      -0.07270000      -1.06480000
C       -1.44650000      -2.09860000       0.08000000
C       -2.87010000      -2.66320000       0.10020000
C       -2.89970000      -4.18530000       0.10020000
O       -4.25800000      -4.59860000       0.12330000
H        0.96760000       1.98390000      -0.16930000
H       -0.66080000       1.89910000      -0.87690000
H       -0.45860000       1.97490000       0.87660000
H        0.50550000      -0.33620000      -0.89950000
H        0.36980000      -0.17670000       2.16350000
H        1.06250000      -1.49910000       1.21110000
H        1.83480000       0.08670000       1.21400000
H       -1.93110000      -0.17430000       0.92070000
H       -1.75490000      -0.38940000      -1.87320000
H       -0.90030000      -2.48950000      -0.79320000
H       -0.90120000      -2.45130000       0.96270000
H       -3.40150000      -2.30500000       0.99060000
H       -3.42980000      -2.29370000      -0.76390000
H       -2.38270000      -4.56780000      -0.79620000
H       -2.35180000      -4.57110000       0.97650000
H       -4.27970000      -5.55980000       0.12790000
