13
Properties=species:S:1:pos:R:3 gdb_129416=T pbc="F F F"
N        1.28360000      -0.48590000      -0.16280000
C        0.05900000       0.10030000      -0.00290000
N       -0.06770000       1.36300000       0.12710000
N       -1.04030000      -0.79180000      -0.04950000
C       -1.05260000      -2.14900000      -0.09510000
N       -0.03800000      -2.97440000      -0.07490000
O       -0.63060000      -4.21130000      -0.13480000
N       -1.99010000      -4.05780000      -0.18350000
N       -2.26260000      -2.82950000      -0.16060000
H        2.05600000       0.13120000       0.02760000
H        1.40950000      -1.46530000       0.03920000
H       -1.03970000       1.65570000       0.17500000
H       -1.95360000      -0.36710000      -0.01930000
