19
Properties=species:S:1:pos:R:3 gdb_106919=T pbc="F F F"
C       -0.27130000       1.52490000      -0.14190000
C        0.17020000       0.06820000       0.04610000
C        0.76020000      -0.52520000      -1.20530000
C       -0.06120000      -1.12920000      -2.29400000
C        0.91210000      -2.00610000      -1.48310000
C        2.26630000      -2.15780000      -2.08220000
O        2.87830000      -3.17240000      -2.29960000
C        2.79360000      -0.73210000      -2.31820000
O        1.92910000       0.15700000      -1.63000000
H        0.57260000       2.14500000      -0.45470000
H       -1.05040000       1.60520000      -0.90690000
H       -0.66980000       1.93270000       0.79140000
H        0.91750000       0.00480000       0.84590000
H       -0.68130000      -0.54920000       0.35410000
H       -1.11190000      -1.31480000      -2.10040000
H        0.17780000      -0.90760000      -3.32860000
H        0.52190000      -2.79600000      -0.85470000
H        3.81200000      -0.63580000      -1.92770000
H        2.82300000      -0.51490000      -3.39590000
