19
Properties=species:S:1:pos:R:3 gdb_115891=T pbc="F F F"
C        0.10520000       1.31680000       0.12630000
O        0.02900000      -0.09090000      -0.02040000
C        0.62160000      -0.56970000      -1.17720000
O        2.02860000      -0.35350000      -1.15790000
C        2.71630000      -1.47640000      -1.69880000
C        1.74130000      -2.62950000      -1.61670000
O        1.18980000      -2.77680000      -0.30490000
C        0.42350000      -2.07540000      -1.29470000
C       -0.92000000      -2.63260000      -1.66190000
H        1.14150000       1.64990000       0.24920000
H       -0.33340000       1.83200000      -0.74210000
H       -0.46780000       1.57380000       1.01950000
H        0.19000000      -0.05700000      -2.06010000
H        3.00580000      -1.30090000      -2.74680000
H        3.62440000      -1.63900000      -1.10850000
H        1.89130000      -3.53940000      -2.19190000
H       -1.65820000      -2.35390000      -0.90340000
H       -1.25830000      -2.23630000      -2.62510000
H       -0.87930000      -3.72240000      -1.72380000
