15
Properties=species:S:1:pos:R:3 gdb_50387=T pbc="F F F"
O        0.19370000      -0.16150000       0.00490000
C        0.09640000       1.03550000       0.09160000
C        1.27430000       1.99100000      -0.00060000
C        1.46820000       2.84740000       1.29670000
N        2.59950000       2.24160000       2.00140000
C        3.11680000       1.38890000       1.19510000
N        2.54810000       1.28600000      -0.08390000
C        4.24960000       0.57910000       1.50450000
C        5.19190000      -0.13130000       1.73160000
H       -0.88890000       1.53220000       0.23990000
H        1.09950000       2.63520000      -0.87230000
H        1.70470000       3.88790000       1.04560000
H        0.57710000       2.86470000       1.93440000
H        2.48270000       0.34350000      -0.45310000
H        6.02760000      -0.75000000       1.94990000
