19
Properties=species:S:1:pos:R:3 gdb_50088=T pbc="F F F"
O       -0.09060000       0.11190000      -0.72450000
C        0.01030000       1.20650000      -0.22640000
C        1.29430000       1.84230000       0.14000000
C        1.41000000       3.36170000       0.04820000
C        1.42900000       2.71220000       1.39080000
C        0.30740000       2.90610000       2.39610000
C        0.58460000       4.09250000       3.29180000
C        0.25220000       4.09060000       4.72060000
O        1.60020000       3.90800000       4.28270000
H       -0.89510000       1.82550000      -0.02560000
H        2.16130000       1.25160000      -0.13460000
H        2.32470000       3.76410000      -0.37110000
H        0.51050000       3.89770000      -0.24190000
H        2.40400000       2.62650000       1.86220000
H       -0.65170000       3.06340000       1.88960000
H        0.20280000       2.01040000       3.01900000
H        0.63980000       5.05700000       2.78340000
H        0.04930000       5.02980000       5.23330000
H       -0.21940000       3.21180000       5.15900000
