16
Properties=species:S:1:pos:R:3 gdb_50308=T pbc="F F F"
O       -0.72690000       0.98440000      -0.56370000
C        0.14810000       1.06540000       0.25870000
C        1.39060000       1.93260000       0.10670000
C        1.46280000       2.77090000      -1.17340000
C        1.40550000       4.21800000      -0.68230000
C        0.22960000       4.66790000       0.08940000
N        1.49000000       4.27930000       0.79200000
C        1.42180000       2.94340000       1.28760000
O        1.38590000       2.64550000       2.44730000
H        0.10320000       0.51580000       1.22070000
H        2.25050000       1.26660000       0.24450000
H        2.40020000       2.59700000      -1.70600000
H        0.63860000       2.52630000      -1.84850000
H        2.00610000       4.95830000      -1.20080000
H       -0.01260000       5.72200000       0.17430000
H       -0.62100000       3.99540000       0.17110000
