17
Properties=species:S:1:pos:R:3 gdb_68758=T pbc="F F F"
C       -0.00860000       1.52390000      -0.01630000
C        0.01040000       0.01810000       0.02770000
C        1.26050000      -0.77010000      -0.29490000
C        0.69390000      -0.78170000       1.11070000
O        1.39060000      -0.24830000       2.17670000
C       -0.20980000      -1.93000000       1.41510000
O       -0.09780000      -2.68900000       2.33920000
O       -1.21410000      -1.98200000       0.50710000
C       -1.27270000      -0.75430000      -0.25710000
H        0.93330000       1.92960000       0.36200000
H       -0.15000000       1.89110000      -1.03870000
H       -0.81730000       1.92600000       0.60330000
H        1.20290000      -1.65870000      -0.91720000
H        2.17490000      -0.19420000      -0.39140000
H        1.40990000      -0.94320000       2.85040000
H       -2.15890000      -0.19840000       0.06910000
H       -1.39140000      -1.02730000      -1.30990000
