19
Properties=species:S:1:pos:R:3 gdb_12518=T pbc="F F F"
C       -0.20550000       1.50660000       0.02390000
C        0.03690000       0.02420000      -0.03750000
N       -0.00490000      -0.60470000      -1.13220000
C        0.05400000      -2.05670000      -1.22380000
C        1.27140000      -2.75520000      -0.60360000
C        1.27470000      -2.71900000       0.92430000
C        1.36690000      -1.30670000       1.48580000
O        0.22570000      -0.48220000       1.23050000
H        0.67720000       2.02340000       0.41660000
H       -0.44990000       1.89110000      -0.96540000
H       -1.02790000       1.71580000       0.71650000
H       -0.85880000      -2.47520000      -0.77150000
H        0.01300000      -2.30740000      -2.28900000
H        1.27700000      -3.79700000      -0.94590000
H        2.18780000      -2.29140000      -0.99170000
H        0.36700000      -3.19760000       1.31370000
H        2.12770000      -3.28820000       1.31500000
H        1.44520000      -1.33410000       2.57640000
H        2.26400000      -0.80540000       1.09510000
