15
Properties=species:S:1:pos:R:3 gdb_75240=T pbc="F F F"
N        0.03300000       1.31520000       0.06620000
C       -0.04210000      -0.03770000       0.02500000
N       -1.11320000      -0.74970000       0.03090000
C       -0.76130000      -2.17880000       0.01300000
C        0.75810000      -2.26160000       0.05200000
C        1.58010000      -3.30440000       0.69050000
O        1.47320000      -3.22400000      -0.72400000
C        1.23190000      -0.83260000      -0.00330000
O        2.35780000      -0.40360000      -0.06400000
H        0.92700000       1.72270000      -0.15720000
H       -0.79410000       1.85300000      -0.13420000
H       -1.23760000      -2.68250000       0.86170000
H       -1.14830000      -2.64900000      -0.89860000
H        2.55090000      -3.03040000       1.10060000
H        1.07780000      -4.15070000       1.15740000
