19
Properties=species:S:1:pos:R:3 gdb_40301=T pbc="F F F"
C       -0.05860000       1.20130000      -0.54240000
C        1.16810000       1.28400000       0.31350000
C        0.51010000      -0.06810000       0.07570000
C       -0.19290000      -0.72450000       1.13700000
C       -0.78830000      -1.28030000       2.02740000
C       -1.48970000      -1.94860000       3.10540000
C       -1.42000000      -1.32320000       4.52740000
C       -2.95710000      -1.31260000       4.44400000
O       -2.93530000      -1.77350000       3.07690000
H       -0.99270000       1.56880000      -0.13530000
H        0.04650000       1.31600000      -1.61530000
H        2.12570000       1.45820000      -0.16400000
H        1.07060000       1.70910000       1.30520000
H        1.03110000      -0.73040000      -0.60970000
H       -1.24090000      -3.01920000       3.09800000
H       -0.97290000      -1.95260000       5.29760000
H       -0.95760000      -0.33630000       4.54460000
H       -3.46360000      -2.02610000       5.10680000
H       -3.44430000      -0.33540000       4.53750000
