18
Properties=species:S:1:pos:R:3 gdb_106153=T pbc="F F F"
C        0.18980000       1.25570000      -0.23290000
O       -0.16950000      -0.07290000       0.13240000
C        0.53030000      -0.55630000       1.18710000
C        1.98030000      -0.86530000       1.44890000
N        2.02470000      -0.05240000       2.66380000
C        0.54440000      -0.23770000       2.75410000
C        0.28680000      -1.75700000       3.00570000
C        0.85190000      -1.96200000       1.60280000
O        0.79490000      -3.07900000       0.80130000
H        1.25240000       1.31710000      -0.49860000
H       -0.42180000       1.51930000      -1.09790000
H       -0.01110000       1.96140000       0.58340000
H        2.80710000      -0.99690000       0.76120000
H        2.51560000      -0.50100000       3.44030000
H       -0.02230000       0.52130000       3.29010000
H        0.79590000      -2.20770000       3.86720000
H       -0.78140000      -1.98700000       3.03650000
H        1.52810000      -3.66030000       1.03220000
