17
Properties=species:S:1:pos:R:3 gdb_31449=T pbc="F F F"
C        0.17280000       1.50640000       0.23660000
C       -0.09890000       0.02450000      -0.08010000
C        0.58010000      -0.46370000      -1.32090000
C        0.07620000      -0.81030000      -2.55000000
C        1.17820000      -1.18740000      -3.38340000
C        2.32760000      -1.05620000      -2.62520000
N        1.95130000      -0.62010000      -1.39070000
C        1.11960000      -1.61930000      -4.73040000
N        1.06160000      -1.97140000      -5.83300000
H        1.24060000       1.69610000       0.38900000
H       -0.16280000       2.14680000      -0.58420000
H       -0.35180000       1.81010000       1.14740000
H        0.20130000      -0.59200000       0.77800000
H       -1.17460000      -0.13200000      -0.20400000
H       -0.96290000      -0.80270000      -2.83820000
H        3.35770000      -1.24430000      -2.87830000
H        2.58630000      -0.44570000      -0.63010000
