14
Properties=species:S:1:pos:R:3 gdb_132806=T pbc="F F F"
O        0.09540000       1.37360000       0.11030000
C        0.06840000       0.01640000       0.06620000
C        0.10950000      -0.64670000      -1.16480000
O        0.17700000       0.11340000      -2.30030000
C        0.08070000      -2.03410000      -1.18490000
F        0.12290000      -2.61820000      -2.40120000
C        0.01240000      -2.79000000      -0.02720000
C       -0.02800000      -2.11620000       1.19240000
C       -0.00040000      -0.72450000       1.24340000
H        0.14410000       1.69830000      -0.79780000
H        0.19830000      -0.48050000      -3.05960000
H       -0.00780000      -3.87040000      -0.09430000
H       -0.08160000      -2.68380000       2.11410000
H       -0.03140000      -0.19320000       2.18710000
