21
Properties=species:S:1:pos:R:3 gdb_113537=T pbc="F F F"
C       -0.29840000       1.39070000       0.33940000
C        0.03970000      -0.04530000      -0.05350000
C        1.36060000      -0.21460000      -0.87300000
C        2.08270000      -0.75820000       0.39730000
C        0.71180000      -0.86030000       1.06790000
O        0.48960000      -0.65150000       2.45580000
C        0.17490000      -1.94570000       1.89420000
C       -1.28790000      -2.30420000       1.94750000
O       -1.70440000      -2.55940000       3.27860000
H        0.57000000       1.89960000       0.77130000
H       -0.62550000       1.96330000      -0.53450000
H       -1.09740000       1.41560000       1.08630000
H       -0.83630000      -0.52300000      -0.50350000
H        1.27700000      -0.96070000      -1.66610000
H        1.76880000       0.70410000      -1.29980000
H        2.65390000      -1.68360000       0.29340000
H        2.71490000      -0.01070000       0.88430000
H        0.85560000      -2.73580000       2.21680000
H       -1.88210000      -1.50090000       1.48710000
H       -1.47230000      -3.22560000       1.38390000
H       -1.46710000      -1.77860000       3.79230000
