18
Properties=species:S:1:pos:R:3 gdb_17914=T pbc="F F F"
C       -0.09380000       1.54560000       0.03190000
C        0.04130000       0.02720000       0.01070000
C        1.05640000      -0.60520000      -0.99650000
C        2.38260000      -0.04850000      -0.39290000
O        2.14530000      -0.05040000       1.01880000
C        0.80400000      -0.60360000       1.19500000
C        0.85790000      -2.06180000       0.77490000
C        1.01020000      -2.05610000      -0.55500000
H        0.83720000       2.03240000       0.33080000
H       -0.38550000       1.92890000      -0.95210000
H       -0.86890000       1.84860000       0.74390000
H       -0.93740000      -0.44220000      -0.11610000
H        0.91500000      -0.39750000      -2.05730000
H        3.24530000      -0.67960000      -0.63500000
H        2.58910000       0.97500000      -0.72890000
H        0.48410000      -0.37080000       2.20980000
H        0.88540000      -2.90930000       1.44730000
H        1.18650000      -2.90370000      -1.20570000
