13
Properties=species:S:1:pos:R:3 gdb_130512=T pbc="F F F"
O       -0.08180000       1.26330000       0.00990000
N        1.02270000       2.09150000       0.00380000
C        2.19370000       1.51270000      -0.01090000
C        2.46350000       0.11580000      -0.02140000
C        1.38210000      -0.71220000      -0.01550000
C        1.06300000      -2.09460000      -0.02020000
C       -0.31640000      -2.13270000      -0.00690000
N       -0.94480000      -0.88810000       0.00620000
C        0.05810000      -0.05990000       0.00110000
H        3.00520000       2.23350000      -0.01480000
H        3.49010000      -0.23300000      -0.03340000
H        1.74670000      -2.92820000      -0.03160000
H       -0.93580000      -3.02120000      -0.00590000
