18
Properties=species:S:1:pos:R:3 gdb_126009=T pbc="F F F"
C       -0.25250000       1.54800000      -0.01660000
C        0.03460000       0.04490000       0.03720000
C        0.95140000      -0.45410000      -1.13410000
N        1.73570000      -1.60620000      -0.60620000
C        1.79240000      -1.37290000       0.78700000
C        0.85280000      -0.45900000       1.18920000
N        0.90640000      -0.41730000       2.54280000
N        1.86430000      -1.23200000       3.03730000
C        2.40380000      -1.83460000       1.96740000
H        0.67540000       2.12580000       0.04210000
H       -0.76310000       1.81400000      -0.94810000
H       -0.89880000       1.85870000       0.81090000
H       -0.92390000      -0.49450000      -0.00260000
H        0.37300000      -0.75140000      -2.01320000
H        1.61520000       0.37470000      -1.42550000
H        2.63980000      -1.68880000      -1.05530000
H        0.38200000       0.15090000       3.18480000
H        3.19940000      -2.55040000       2.10830000
