14
Properties=species:S:1:pos:R:3 gdb_27965=T pbc="F F F"
O        0.07650000       1.34360000      -0.08680000
C        0.06570000      -0.00280000      -0.05000000
C        0.03770000      -0.70810000      -1.26000000
C        0.02710000      -2.09420000      -1.19670000
C       -0.00260000      -2.88950000      -2.45340000
O       -0.01340000      -4.09520000      -2.49370000
C        0.04450000      -2.72800000       0.05310000
C        0.07190000      -1.92780000       1.18200000
N        0.08250000      -0.58690000       1.14080000
H        0.09580000       1.63780000       0.83500000
H        0.02500000      -0.17570000      -2.20450000
H       -0.01430000      -2.27920000      -3.38330000
H        0.03640000      -3.80860000       0.11340000
H        0.08620000      -2.36870000       2.17490000
