18
Properties=species:S:1:pos:R:3 gdb_125999=T pbc="F F F"
C       -0.24110000       1.55790000       0.04680000
C       -0.02250000       0.05150000      -0.01700000
C        1.14400000      -0.45670000      -0.96280000
N        1.74770000      -1.00430000       0.27000000
N        2.73430000      -1.68890000       0.86020000
N        2.38620000      -1.71220000       2.13020000
C        1.19550000      -1.06050000       2.35050000
C        0.60440000      -0.96270000       3.71770000
C        0.78730000      -0.60020000       1.11260000
H        0.69940000       2.08520000       0.23430000
H       -0.66490000       1.93000000      -0.89150000
H       -0.93600000       1.81240000       0.85280000
H       -0.96420000      -0.46620000      -0.22190000
H        0.87600000      -1.22120000      -1.69450000
H        1.74450000       0.32730000      -1.42950000
H        0.52780000       0.07610000       4.05680000
H       -0.40090000      -1.39570000       3.75910000
H        1.23960000      -1.50440000       4.42170000
