16
Properties=species:S:1:pos:R:3 gdb_65795=T pbc="F F F"
C       -0.04750000       1.58770000       0.06320000
C        0.00320000       0.05520000      -0.01330000
N        0.84870000      -0.42320000      -1.12590000
C        1.80020000      -1.27280000      -0.62810000
C        1.84970000      -1.32500000       0.72660000
C        0.77500000      -0.50370000       1.25400000
O        0.47830000      -0.21300000       2.38950000
C       -1.32870000      -0.53140000      -0.09530000
C       -2.42950000      -1.00730000      -0.17760000
H        0.96800000       1.99200000       0.04440000
H       -0.61430000       2.00530000      -0.77250000
H       -0.52500000       1.87300000       1.00340000
H        0.40310000      -0.63680000      -2.00580000
H        2.44260000      -1.79540000      -1.32740000
H        2.57280000      -1.85440000       1.32640000
H       -3.40170000      -1.43190000      -0.23090000
