16
Properties=species:S:1:pos:R:3 gdb_3047=T pbc="F F F"
O       -0.16000000      -0.02210000      -0.24040000
C        0.04070000       1.14050000      -0.00120000
C        1.34390000       1.86510000      -0.24150000
C        1.15860000       3.09440000      -1.14230000
N        2.38220000       3.88460000      -1.18010000
C        3.35180000       3.52420000      -2.21150000
C        2.54280000       4.76810000      -2.33010000
H       -0.76450000       1.78070000       0.43230000
H        1.72430000       2.21470000       0.72810000
H        2.06820000       1.16380000      -0.66440000
H        0.83750000       2.77150000      -2.14950000
H        0.36070000       3.73150000      -0.74030000
H        4.39580000       3.56840000      -1.91600000
H        3.10170000       2.70470000      -2.88390000
H        1.75470000       4.77750000      -3.08140000
H        2.98360000       5.73840000      -2.12070000
