17
Properties=species:S:1:pos:R:3 gdb_130461=T pbc="F F F"
N        1.07920000       1.10190000       0.49520000
H        0.96470000       0.15560000       0.14270000
H        2.38820000       0.93240000       1.95530000
H        1.30900000       1.67920000      -0.30720000
C       -0.17840000       1.56490000       1.11090000
C       -0.38750000       1.01780000       2.52510000
O        0.35830000       1.72000000       3.52450000
C        1.56580000       1.24280000       3.87270000
N        2.52520000       0.88870000       2.96810000
C        3.59130000       0.53760000       3.74770000
N        3.30380000       0.67470000       5.01600000
N        1.99390000       1.12370000       5.10030000
H       -0.14880000       2.65690000       1.17530000
H       -1.06200000       1.29700000       0.51190000
H       -1.43660000       1.15760000       2.80180000
H       -0.16350000      -0.05580000       2.57030000
H        4.53190000       0.19090000       3.34840000
