23
Properties=species:S:1:pos:R:3 gdb_52870=T pbc="F F F"
C       -0.24650000       1.47340000      -0.28890000
C       -0.12790000       0.02800000      -0.15440000
C       -0.03660000      -1.16870000      -0.03870000
C        0.09080000      -2.60280000       0.07160000
C       -0.32040000      -3.21360000       1.40530000
C       -1.21550000      -3.37380000       0.21020000
C        1.29530000      -3.17260000      -0.70570000
C        2.60900000      -2.70530000      -0.05950000
C        1.28820000      -4.69690000      -0.87590000
H        0.41280000       1.85320000      -1.07750000
H       -1.26980000       1.76910000      -0.54680000
H        0.02200000       1.98850000       0.64060000
H        0.22870000      -4.08370000       1.74840000
H       -0.62170000      -2.53350000       2.19280000
H       -2.13140000      -2.79610000       0.17290000
H       -1.28290000      -4.35330000      -0.24720000
H        1.24210000      -2.73220000      -1.71000000
H        3.47010000      -3.00330000      -0.66640000
H        2.62710000      -1.61770000       0.05010000
H        2.73150000      -3.14630000       0.93640000
H        0.42320000      -5.04590000      -1.44640000
H        2.18550000      -5.00950000      -1.41920000
H        1.29760000      -5.22020000       0.08690000
