23
Properties=species:S:1:pos:R:3 gdb_93042=T pbc="F F F"
C       -0.11700000       1.57030000      -0.01540000
C        0.02980000       0.04490000      -0.02250000
C        0.66090000      -0.46000000      -1.33340000
C        1.07000000      -1.90800000      -1.27550000
C        1.27120000      -2.58040000      -0.14150000
C        1.14930000      -1.98250000       1.22660000
C        2.52840000      -1.59840000       1.86430000
C        2.30480000      -0.13700000       1.39370000
C        0.79390000      -0.46510000       1.19990000
H        0.86330000       2.06010000      -0.04010000
H       -0.68380000       1.91950000      -0.88530000
H       -0.63800000       1.91520000       0.88430000
H       -0.97630000      -0.39570000       0.03550000
H       -0.04240000      -0.30330000      -2.16140000
H        1.53750000       0.15710000      -1.58630000
H        1.21660000      -2.41220000      -2.22830000
H        1.57810000      -3.62440000      -0.18520000
H        0.51710000      -2.61490000       1.86000000
H        2.50790000      -1.68950000       2.95410000
H        3.40950000      -2.12140000       1.48500000
H        2.55680000       0.66030000       2.09680000
H        2.81120000       0.06700000       0.44630000
H        0.24370000      -0.19500000       2.10810000
