25
Properties=species:S:1:pos:R:3 gdb_122417=T pbc="F F F"
C       -0.01600000       1.46070000       0.33520000
C       -0.03360000      -0.05640000       0.13030000
C       -1.44840000      -0.62870000      -0.00370000
C       -1.47410000      -2.14760000      -0.20600000
C       -2.88260000      -2.70790000      -0.28400000
C       -3.08350000      -4.23610000      -0.20790000
C       -4.01360000      -3.91520000       0.98280000
C       -3.73800000      -4.56090000       2.32520000
O       -3.62720000      -2.51890000       0.94710000
H        1.00600000       1.84030000       0.43270000
H       -0.48490000       1.98000000      -0.50830000
H       -0.56450000       1.74310000       1.24070000
H        0.54920000      -0.31280000      -0.76480000
H        0.47520000      -0.54550000       0.97170000
H       -2.03260000      -0.38550000       0.89220000
H       -1.96020000      -0.14060000      -0.84520000
H       -0.94220000      -2.41660000      -1.12990000
H       -0.94570000      -2.64130000       0.62020000
H       -3.42250000      -2.24640000      -1.12530000
H       -3.53930000      -4.71810000      -1.07400000
H       -2.17980000      -4.78200000       0.07690000
H       -5.07860000      -4.01900000       0.72770000
H       -2.67680000      -4.48420000       2.58160000
H       -4.31760000      -4.06870000       3.11270000
H       -4.01850000      -5.62000000       2.30570000
