19
Properties=species:S:1:pos:R:3 gdb_71226=T pbc="F F F"
O       -0.05090000       1.41680000      -0.02000000
C        0.01820000       0.01600000       0.01340000
C        0.31000000      -0.71730000       1.37330000
C       -0.71820000      -1.75580000       0.91530000
C       -0.41500000      -2.50990000      -0.46080000
C       -1.64870000      -1.74600000      -1.06680000
C       -1.40770000      -0.68830000       0.01130000
C        0.79390000      -1.93310000      -1.15010000
C        0.94690000      -0.61700000      -0.99490000
H        0.84610000       1.76530000       0.03020000
H        1.34250000      -1.00840000       1.58670000
H       -0.10650000      -0.13800000       2.20390000
H       -1.26210000      -2.35680000       1.64440000
H       -0.44200000      -3.59970000      -0.44780000
H       -1.59920000      -1.47690000      -2.12520000
H       -2.58450000      -2.27430000      -0.85850000
H       -2.19830000      -0.02150000       0.35740000
H        1.41890000      -2.54520000      -1.79110000
H        1.71560000      -0.01950000      -1.47650000
