17
Properties=species:S:1:pos:R:3 gdb_97698=T pbc="F F F"
O        0.27960000       1.01200000      -0.76350000
C       -0.01210000       0.09250000       0.28080000
C       -1.36200000      -0.46340000       0.21500000
C       -2.49580000      -0.86790000       0.15000000
C       -3.84350000      -1.36990000       0.06650000
C       -4.32060000      -1.90030000      -1.29610000
C       -4.02760000      -2.87240000      -0.20530000
C       -4.82130000      -0.72270000       0.90570000
C       -5.64480000      -0.18940000       1.60040000
H       -0.43190000       1.66070000      -0.77970000
H        0.73130000      -0.70720000       0.18750000
H        0.13950000       0.55000000       1.27180000
H       -5.35480000      -1.69890000      -1.54750000
H       -3.61570000      -1.80880000      -2.11330000
H       -3.11890000      -3.45890000      -0.26250000
H       -4.85790000      -3.34740000       0.30290000
H       -6.36520000       0.28650000       2.21830000
