14
Properties=species:S:1:pos:R:3 gdb_77345=T pbc="F F F"
O        0.34060000       0.95160000       0.71540000
C        0.11560000      -0.22290000      -0.00140000
C       -1.37240000      -0.58380000      -0.16000000
C       -1.34290000      -1.38380000      -1.48790000
O       -0.28300000      -0.79320000      -2.26170000
C        0.54940000      -0.08980000      -1.46340000
O        1.46980000       0.56620000      -1.85600000
C       -1.96060000      -1.32970000       0.94300000
N       -2.42870000      -1.94180000       1.80370000
H        1.08720000       1.39510000       0.28680000
H        0.65430000      -1.08100000       0.43510000
H       -1.92610000       0.35130000      -0.29850000
H       -1.11930000      -2.44070000      -1.31460000
H       -2.26650000      -1.29830000      -2.06020000
