22
Properties=species:S:1:pos:R:3 gdb_110415=T pbc="F F F"
C       -0.08650000       1.52340000      -0.06300000
C        0.13160000       0.01030000       0.02420000
C        0.76050000      -0.56200000      -1.23820000
C        0.75700000      -2.07930000      -1.34910000
C       -0.53880000      -1.99710000      -2.10410000
N       -0.20830000      -0.51950000      -2.41650000
C        0.66610000      -1.03790000      -3.53930000
C        0.69410000      -2.40070000      -2.86220000
C        1.07670000      -3.73420000      -3.43080000
H        0.86480000       2.05560000      -0.17650000
H       -0.71200000       1.76600000      -0.92630000
H       -0.57550000       1.90620000       0.83800000
H        0.77980000      -0.23130000       0.87720000
H       -0.82350000      -0.49750000       0.20660000
H        1.70320000      -0.03960000      -1.45370000
H        1.07100000      -2.82960000      -0.63220000
H       -1.52660000      -2.41820000      -1.97990000
H        0.09380000      -1.05130000      -4.47230000
H        1.59740000      -0.47770000      -3.68890000
H        2.15860000      -3.80370000      -3.59300000
H        0.79140000      -4.55050000      -2.75850000
H        0.58300000      -3.90990000      -4.39340000
