21
Properties=species:S:1:pos:R:3 gdb_113056=T pbc="F F F"
C        0.15100000       1.44140000       0.37360000
C        0.07280000      -0.05120000       0.03540000
C       -1.36220000      -0.57230000      -0.00180000
C       -1.63910000      -2.09440000      -0.22350000
C       -2.71400000      -2.08060000       0.89560000
O       -2.67990000      -3.15680000       1.78070000
C       -3.67140000      -3.08400000       2.79250000
C       -2.10640000      -0.72540000       1.33940000
O       -2.05690000      -0.14580000       2.38850000
H        1.19030000       1.78160000       0.40950000
H       -0.37120000       2.04440000      -0.37780000
H       -0.30950000       1.63980000       1.34490000
H        0.54630000      -0.24540000      -0.93520000
H        0.63930000      -0.62810000       0.77700000
H       -1.96780000       0.03380000      -0.68870000
H       -1.97010000      -2.40360000      -1.21490000
H       -0.78860000      -2.70610000       0.08840000
H       -3.72630000      -1.92430000       0.48190000
H       -3.54320000      -2.19340000       3.41840000
H       -4.68330000      -3.07070000       2.35770000
H       -3.56260000      -3.97940000       3.40820000
