13
Properties=species:S:1:pos:R:3 gdb_24765=T pbc="F F F"
O       -0.02120000      -0.04820000       0.00460000
C        0.00590000       1.15900000       0.00990000
C       -1.19850000       2.10470000       0.03120000
C       -0.78740000       3.38310000       0.03150000
C        0.69950000       3.38650000       0.01080000
C        1.15370000       2.09410000      -0.00150000
N        2.52040000       2.18870000      -0.02010000
C        2.80790000       3.52570000      -0.01770000
N        1.71720000       4.28650000       0.00090000
H       -2.21100000       1.72750000       0.04340000
H       -1.40820000       4.26930000       0.04430000
H        3.18680000       1.43370000      -0.03290000
H        3.82410000       3.89040000      -0.03000000
