16
Properties=species:S:1:pos:R:3 gdb_77787=T pbc="F F F"
C       -0.10980000       1.52360000       0.00370000
N        0.09650000       0.08130000       0.10770000
C        1.36220000      -0.56150000      -0.20060000
C        2.53260000       0.23580000       0.34510000
O        3.59370000       0.55360000      -0.10720000
C        1.92710000       0.29910000       1.76990000
C        0.75450000      -0.55130000       1.22550000
C        0.12670000      -1.61720000       1.93480000
C       -0.38020000      -2.50300000       2.57070000
H        0.72370000       2.14800000       0.34940000
H       -0.29970000       1.75940000      -1.04680000
H       -1.00290000       1.78330000       0.57890000
H        1.38660000      -1.34250000      -0.95300000
H        2.56560000      -0.24910000       2.46770000
H        1.68030000       1.27360000       2.19710000
H       -0.83610000      -3.28930000       3.12000000
