13
Properties=species:S:1:pos:R:3 gdb_52464=T pbc="F F F"
C       -0.01840000       1.48470000       0.01020000
C        0.00170000       0.03540000       0.00210000
C        0.01830000      -1.17820000      -0.00460000
C        0.03690000      -2.52620000      -0.01190000
C        0.05350000      -3.74860000      -0.01860000
C        0.07160000      -5.09000000      -0.02590000
C        0.08790000      -6.31170000      -0.03260000
C        0.10590000      -7.66170000      -0.03990000
C        0.12200000      -8.87220000      -0.04660000
H        0.99860000       1.89320000       0.00270000
H       -0.54350000       1.87670000      -0.86820000
H       -0.52660000       1.86700000       0.90270000
H        0.13590000      -9.93390000      -0.05290000
