14
Properties=species:S:1:pos:R:3 gdb_54648=T pbc="F F F"
C       -0.03760000       1.48010000       0.00940000
C        0.02030000      -0.02730000       0.00250000
O        1.03830000      -0.67380000      -0.00830000
C       -1.31490000      -0.73090000       0.01040000
N       -2.45010000      -0.15390000       0.02170000
C       -3.43300000      -1.23010000       0.02540000
C       -2.61700000      -2.51920000       0.01370000
O       -2.93370000      -3.66330000       0.01220000
O       -1.28310000      -2.10170000       0.00490000
H        0.97800000       1.87560000       0.00220000
H       -0.59440000       1.84200000      -0.86040000
H       -0.57880000       1.83440000       0.89210000
H       -4.07480000      -1.18160000       0.91160000
H       -4.08900000      -1.17470000      -0.85000000
