23
Properties=species:S:1:pos:R:3 gdb_104417=T pbc="F F F"
C        0.25820000       1.33200000       0.24330000
O        0.22540000      -0.07460000       0.09250000
C        0.65150000      -0.58060000      -1.16630000
C       -0.23400000      -0.10090000      -2.31110000
O        1.97800000      -0.17520000      -1.44870000
C        2.91160000      -1.08810000      -0.85110000
C        2.08490000      -2.23750000      -0.25210000
C        0.74240000      -2.11150000      -0.99280000
C       -0.44480000      -2.77820000      -0.30400000
H        1.21230000       1.74890000      -0.09890000
H       -0.56070000       1.82700000      -0.29700000
H        0.13910000       1.53580000       1.31050000
H       -0.12840000       0.97620000      -2.46050000
H        0.05550000      -0.59680000      -3.24050000
H       -1.28290000      -0.32380000      -2.09800000
H        3.58930000      -1.43410000      -1.64110000
H        3.51090000      -0.56350000      -0.09840000
H        2.55970000      -3.21150000      -0.39370000
H        1.92820000      -2.08630000       0.81940000
H        0.85890000      -2.52740000      -2.00150000
H       -0.60140000      -2.35510000       0.69050000
H       -1.36740000      -2.64290000      -0.87820000
H       -0.27550000      -3.85520000      -0.20190000
