20
Properties=species:S:1:pos:R:3 gdb_28010=T pbc="F F F"
C        0.17240000       1.52080000      -0.00480000
C        0.03730000       0.02770000       0.01970000
C        0.03360000      -0.81260000      -1.07170000
N       -0.11060000      -2.11190000      -0.64090000
C       -0.19990000      -2.10890000       0.72980000
C       -0.11210000      -0.80680000       1.16540000
C       -0.15530000      -3.24890000      -1.51380000
C        0.46240000      -4.56410000      -1.12200000
C       -1.04180000      -4.42920000      -1.22060000
H        1.05280000       1.86020000       0.55400000
H        0.27160000       1.89120000      -1.02960000
H       -0.69810000       2.01680000       0.44110000
H        0.12190000      -0.59370000      -2.12490000
H       -0.31810000      -3.02630000       1.28360000
H       -0.15060000      -0.48420000       2.19550000
H       -0.06010000      -2.94340000      -2.54880000
H        0.98920000      -5.12980000      -1.88250000
H        0.89900000      -4.63070000      -0.13180000
H       -1.60780000      -4.40590000      -0.29620000
H       -1.55740000      -4.90150000      -2.04950000
