19
Properties=species:S:1:pos:R:3 gdb_84741=T pbc="F F F"
C       -0.07120000       1.56080000       0.01850000
C        0.08820000       0.04340000       0.02670000
C        0.76880000      -0.49920000      -1.26340000
O        1.94910000       0.22620000      -1.60660000
C        1.05460000      -1.97680000      -1.16970000
C        1.13690000      -2.63630000      -0.01430000
C        0.93750000      -1.98960000       1.33280000
C        0.84800000      -0.47050000       1.24090000
O        1.36210000       0.25340000       2.06150000
H        0.90320000       2.04710000      -0.04630000
H       -0.66940000       1.87840000      -0.84120000
H       -0.56260000       1.90470000       0.93160000
H       -0.89840000      -0.44360000       0.05800000
H        0.08880000      -0.30500000      -2.10100000
H        2.64760000      -0.04240000      -0.99880000
H        1.24440000      -2.49080000      -2.10790000
H        1.37050000      -3.69840000      -0.01000000
H        0.00760000      -2.36050000       1.79230000
H        1.74170000      -2.24950000       2.02910000
