17
Properties=species:S:1:pos:R:3 gdb_45855=T pbc="F F F"
O        0.01140000       0.07600000       0.49950000
C       -0.02020000       1.22350000       0.12810000
C       -1.33780000       1.93360000      -0.17550000
C       -1.21730000       3.25180000      -0.88680000
C       -0.06390000       3.78000000      -1.28910000
C        1.27270000       3.12300000      -1.07500000
C        1.23670000       2.06380000       0.01200000
C        2.01110000       2.22680000       1.26560000
O        2.45680000       1.36610000       0.22920000
H       -1.96550000       1.23020000      -0.73790000
H       -1.85720000       2.05970000       0.78620000
H       -2.14850000       3.77640000      -1.08540000
H       -0.06070000       4.72770000      -1.82060000
H        1.60910000       2.64900000      -2.00910000
H        2.03880000       3.86870000      -0.83430000
H        2.58510000       3.14190000       1.40980000
H        1.67350000       1.72530000       2.17120000
