21
Properties=species:S:1:pos:R:3 gdb_72729=T pbc="F F F"
O        0.16360000       1.35290000       0.15830000
C        0.09450000      -0.05890000      -0.01850000
C        0.15300000      -0.36590000      -1.56050000
C       -1.44610000      -0.28070000      -1.50560000
C       -1.29840000      -0.67650000      -0.00440000
C       -1.37020000      -0.24720000       1.50480000
C        0.18920000      -0.65310000       1.43440000
C        0.10980000      -2.16490000       1.24040000
C       -1.02630000      -2.19720000       0.17240000
H       -0.13280000       1.78660000      -0.64810000
H        0.68340000       0.37160000      -2.17080000
H        0.50360000      -1.35870000      -1.83990000
H       -1.79870000       0.74040000      -1.67420000
H       -2.01280000      -0.95190000      -2.15600000
H       -1.50750000       0.81680000       1.66970000
H       -1.99910000      -0.83930000       2.17690000
H        0.90280000      -0.25340000       2.15680000
H        1.04770000      -2.59350000       0.87470000
H       -0.15750000      -2.68420000       2.16490000
H       -1.92850000      -2.70020000       0.53410000
H       -0.72850000      -2.70180000      -0.74880000
