19
Properties=species:S:1:pos:R:3 gdb_57577=T pbc="F F F"
C       -0.02280000       1.62180000       0.23630000
C        0.09010000       0.10500000       0.11850000
O        0.92500000      -0.36110000       1.16880000
C       -1.25940000      -0.60980000       0.22110000
C       -2.46380000      -0.04110000       0.83040000
O       -2.32680000      -0.11850000      -0.59420000
C        0.70280000      -0.28260000      -1.22870000
C        2.15260000      -0.33060000      -1.42680000
O        1.39840000      -1.53840000      -1.21880000
H        0.93460000       2.09070000      -0.00290000
H       -0.78730000       2.00190000      -0.44610000
H       -0.28770000       1.89800000       1.25990000
H        1.24640000      -1.22940000       0.88390000
H       -1.16180000      -1.69760000       0.21470000
H       -3.20810000      -0.70880000       1.26110000
H       -2.44850000       0.96370000       1.24490000
H        0.05470000      -0.13250000      -2.09120000
H        2.56410000      -0.21450000      -2.42720000
H        2.80940000      -0.05520000      -0.60550000
