18
Properties=species:S:1:pos:R:3 gdb_89105=T pbc="F F F"
O       -0.56800000       1.21620000      -0.65590000
C       -0.24020000      -0.06620000      -0.21600000
C       -0.22260000      -0.38840000       1.26230000
C       -1.32780000      -0.92000000       0.38820000
O       -2.57290000      -0.29290000       0.54840000
C       -3.42480000      -0.48810000      -0.57050000
C       -4.75140000       0.20330000      -0.23570000
C       -5.73680000       0.03810000      -1.29930000
N       -6.50530000      -0.10380000      -2.14990000
H       -1.37180000       1.47160000      -0.18610000
H        0.50120000      -0.51990000      -0.86440000
H        0.50900000      -1.08810000       1.65090000
H       -0.49090000       0.41560000       1.94040000
H       -1.38700000      -1.98730000       0.17740000
H       -2.98180000      -0.06310000      -1.48020000
H       -3.59300000      -1.56060000      -0.74310000
H       -5.14910000      -0.21100000       0.69660000
H       -4.57930000       1.27150000      -0.06550000
