16
Properties=species:S:1:pos:R:3 gdb_36537=T pbc="F F F"
N       -0.85710000       0.34580000      -1.44040000
C       -0.28840000       0.77130000      -0.52850000
C        0.42230000       1.33170000       0.63580000
N        1.38550000       2.39070000       0.41220000
C        1.84770000       2.66340000      -0.72370000
C        1.80300000       2.17440000      -2.18020000
C        2.80750000       3.29460000      -2.43990000
C        2.29290000       4.58980000      -1.97780000
N        2.86640000       3.66480000      -0.95290000
H       -0.33720000       1.70620000       1.33240000
H        0.92280000       0.50700000       1.15990000
H        2.22230000       1.17070000      -2.28240000
H        0.85110000       2.21040000      -2.71240000
H        3.72440000       3.19280000      -3.00750000
H        2.91150000       5.46970000      -2.11830000
H        1.22250000       4.78030000      -1.96340000
