13
Properties=species:S:1:pos:R:3 gdb_25444=T pbc="F F F"
O       -0.10530000      -0.05660000       0.00090000
C       -0.05950000       1.14150000       0.00960000
N        1.13390000       1.88480000       0.00220000
C        1.11810000       3.27320000       0.01360000
C        2.26960000       3.95810000       0.00620000
C        3.56260000       3.25500000      -0.01470000
O        4.62730000       3.83060000      -0.02040000
N        3.50550000       1.83090000      -0.02460000
C        2.37230000       1.24360000      -0.01660000
H       -0.94570000       1.80070000       0.02510000
H        0.13380000       3.72820000       0.02850000
H        2.27850000       5.04010000       0.01510000
H        2.29210000       0.16020000      -0.02410000
