17
Properties=species:S:1:pos:R:3 gdb_19851=T pbc="F F F"
C       -0.02780000       1.46780000       0.04430000
C        1.46900000       1.93560000       0.11040000
C        2.17740000       0.79890000      -0.63870000
C        3.39710000      -0.08410000      -0.25200000
N        3.15530000      -0.68110000       1.07570000
C        2.50160000      -1.28600000      -0.13910000
C        1.30130000      -0.39620000      -0.33000000
C        0.07330000      -0.06100000       0.04470000
H       -0.61330000       1.83380000       0.89480000
H       -0.52460000       1.84930000      -0.86000000
H        1.62190000       2.93230000      -0.31330000
H        1.79230000       1.94560000       1.15590000
H        2.22620000       0.98050000      -1.72150000
H        4.40090000      -0.01560000      -0.65400000
H        3.96700000      -1.26560000       1.28400000
H        2.67440000      -2.32370000      -0.39280000
H       -0.72840000      -0.70830000       0.38000000
