16
Properties=species:S:1:pos:R:3 gdb_125481=T pbc="F F F"
C       -0.01340000       1.47480000       0.03790000
C        0.00020000      -0.02460000      -0.00710000
N        0.10740000      -0.61420000      -1.21020000
C        0.11520000      -1.93740000      -1.20110000
C        0.01640000      -2.64490000       0.00220000
C        0.01950000      -4.15040000       0.07990000
O        0.13540000      -4.67240000      -1.22990000
N       -0.08730000      -1.99790000       1.15940000
N       -0.09610000      -0.67000000       1.16150000
H        0.90500000       1.87450000      -0.40360000
H       -0.84790000       1.86320000      -0.55420000
H       -0.10410000       1.82030000       1.06780000
H        0.20000000      -2.45850000      -2.14870000
H        0.85340000      -4.46560000       0.72540000
H       -0.90800000      -4.47710000       0.57420000
H        0.13690000      -5.63170000      -1.17510000
