17
Properties=species:S:1:pos:R:3 gdb_98340=T pbc="F F F"
C       -0.02410000       1.34060000       0.03090000
O       -0.02750000      -0.09160000      -0.08880000
C        0.60090000      -0.58170000      -1.16790000
O        1.14600000       0.09060000      -2.00570000
C        0.59280000      -2.10700000      -1.16460000
N        0.65850000      -2.56880000      -2.53300000
C        1.77070000      -2.56080000      -0.23350000
C        1.88470000      -4.01410000      -0.20280000
N        1.94670000      -5.16830000      -0.21560000
H        0.99970000       1.71900000       0.07930000
H       -0.52910000       1.79450000      -0.82480000
H       -0.56000000       1.56060000       0.95360000
H       -0.33850000      -2.44910000      -0.70300000
H        1.38020000      -2.06040000      -3.03430000
H        0.86020000      -3.56210000      -2.57510000
H        2.71110000      -2.13870000      -0.60610000
H        1.61510000      -2.18660000       0.78410000
