20
Properties=species:S:1:pos:R:3 gdb_83158=T pbc="F F F"
C       -0.44890000       1.35240000       0.25100000
C       -0.07490000      -0.09410000       0.02100000
C        0.55810000      -0.58530000      -1.24100000
C        0.93120000       0.35190000      -2.38400000
C        2.43630000       0.68700000      -2.36010000
C        2.81140000       1.25320000      -1.00630000
O        3.41830000       2.28860000      -0.85900000
C        2.40230000       0.39890000       0.19670000
N        1.31380000      -0.56670000       0.02760000
H        0.20550000       2.05920000      -0.26490000
H       -1.47380000       1.53540000      -0.08930000
H       -0.41130000       1.59200000       1.31950000
H       -0.74300000      -0.78740000       0.53210000
H        0.31680000      -1.59800000      -1.55980000
H        0.67500000      -0.12230000      -3.33570000
H        0.35730000       1.28340000      -2.34120000
H        3.01230000      -0.23570000      -2.51410000
H        2.71590000       1.40180000      -3.13690000
H        3.30520000      -0.17310000       0.45910000
H        2.21050000       1.06620000       1.04230000
