19
Properties=species:S:1:pos:R:3 gdb_82323=T pbc="F F F"
O        0.43430000       0.81260000       0.81840000
C       -0.01470000      -0.31500000       0.08880000
C       -1.50380000      -0.28290000      -0.17410000
C       -1.99550000       0.59960000      -1.29530000
C       -1.73890000      -0.86350000      -1.55810000
C       -0.39160000      -1.24190000      -2.16360000
C        0.59980000      -0.45940000      -1.31110000
C        1.52990000       0.53580000      -1.85380000
O        1.99500000      -0.73870000      -1.38080000
H        1.34450000       0.63810000       1.08160000
H        0.22070000      -1.23740000       0.64560000
H       -2.17130000      -0.50080000       0.65090000
H       -3.03090000       0.91690000      -1.24340000
H       -1.32540000       1.34300000      -1.71320000
H       -2.58810000      -1.51010000      -1.74610000
H       -0.21140000      -2.31730000      -2.04330000
H       -0.30370000      -1.01110000      -3.23000000
H        1.58950000       0.67890000      -2.93200000
H        1.81240000       1.39240000      -1.24690000
