21
Properties=species:S:1:pos:R:3 gdb_108324=T pbc="F F F"
C       -0.09860000       1.47270000       0.15390000
O        0.00440000       0.06160000       0.14240000
C       -1.21210000      -0.58020000      -0.05260000
C       -2.22130000      -0.64390000       1.11410000
O       -2.36490000      -2.07440000       0.94470000
C       -1.32330000      -2.12580000      -0.05570000
C       -1.86570000      -2.10370000      -1.50830000
C       -3.17270000      -2.82760000      -1.78700000
C       -1.87080000      -0.53590000      -1.46640000
H        0.90870000       1.86720000       0.30360000
H       -0.49560000       1.86180000      -0.79470000
H       -0.74250000       1.82860000       0.97190000
H       -1.77180000      -0.39950000       2.08570000
H       -3.17470000      -0.11410000       1.00070000
H       -0.51960000      -2.81670000       0.21130000
H       -1.08190000      -2.45360000      -2.18910000
H       -3.92970000      -2.54970000      -1.04860000
H       -3.55230000      -2.58100000      -2.78420000
H       -3.04220000      -3.91420000      -1.73670000
H       -2.85950000      -0.06940000      -1.50480000
H       -1.23170000      -0.07400000      -2.22200000
