21
Properties=species:S:1:pos:R:3 gdb_91231=T pbc="F F F"
C        0.10230000       1.53390000      -0.24600000
C       -0.04040000       0.02200000      -0.01320000
C        0.51500000      -0.84790000      -1.17380000
C        1.97640000      -1.19560000      -0.82760000
C        3.06550000      -0.12280000      -1.14830000
C        3.11080000       0.21910000       0.35060000
O        3.67890000       1.05230000       0.99680000
C        2.12250000      -0.90710000       0.70930000
C        0.73940000      -0.47490000       1.23100000
H        1.14550000       1.85580000      -0.31890000
H       -0.40320000       1.83570000      -1.16950000
H       -0.34840000       2.09480000       0.57940000
H       -1.10830000      -0.18490000       0.11550000
H       -0.06230000      -1.77730000      -1.23450000
H        0.41860000      -0.35340000      -2.14630000
H        2.24850000      -2.19840000      -1.15890000
H        4.01480000      -0.53800000      -1.50320000
H        2.78500000       0.69820000      -1.81460000
H        2.58670000      -1.68160000       1.32640000
H        0.81370000       0.28550000       2.01470000
H        0.23690000      -1.34450000       1.66850000
