20
Properties=species:S:1:pos:R:3 gdb_82404=T pbc="F F F"
C       -0.23990000       1.52580000       0.00140000
C        0.07840000       0.03030000       0.01880000
C        0.74500000      -0.44460000      -1.27510000
C        2.15330000      -0.07320000      -1.57180000
N        1.80060000      -1.46570000      -1.30030000
C        2.28720000      -2.04900000      -0.03950000
C        1.34730000      -1.84080000       1.16710000
C        0.89460000      -0.39600000       1.23620000
O        1.15310000       0.34660000       2.15480000
H        0.67760000       2.11760000      -0.05430000
H       -0.86510000       1.77850000      -0.86050000
H       -0.76680000       1.81830000       0.91250000
H       -0.86450000      -0.53240000       0.10950000
H        0.05380000      -0.52460000      -2.11280000
H        2.47640000       0.14800000      -2.58600000
H        2.69410000       0.47350000      -0.79840000
H        2.42750000      -3.12400000      -0.19590000
H        3.27410000      -1.63240000       0.19310000
H        0.46120000      -2.47510000       1.03840000
H        1.84480000      -2.12050000       2.09830000
