20
Properties=species:S:1:pos:R:3 gdb_95688=T pbc="F F F"
C       -0.10650000       1.54620000       0.07230000
C        0.00810000       0.02900000      -0.01480000
C        0.59360000      -0.43020000      -1.35550000
C        0.66860000      -1.95140000      -1.51970000
N        1.67200000      -2.60070000      -0.68660000
C        1.70690000      -2.66520000       0.67840000
O        2.46080000      -3.41700000       1.26840000
C        0.74710000      -1.74190000       1.44250000
O        0.81030000      -0.37810000       1.08660000
H        0.88140000       2.00780000      -0.02120000
H       -0.74730000       1.93330000      -0.72550000
H       -0.53010000       1.83900000       1.03600000
H       -0.99650000      -0.41800000       0.09700000
H       -0.03740000      -0.03300000      -2.16020000
H        1.59500000      -0.00140000      -1.47630000
H       -0.32730000      -2.38800000      -1.34740000
H        0.93080000      -2.18450000      -2.55500000
H        2.29590000      -3.25930000      -1.12900000
H       -0.28230000      -2.12770000       1.34300000
H        1.03940000      -1.81790000       2.49130000
