17
Properties=species:S:1:pos:R:3 gdb_28717=T pbc="F F F"
C        0.12480000       1.44430000       0.20230000
C       -0.06410000      -0.02240000       0.00240000
N       -0.62630000      -0.59290000      -1.04440000
C       -0.56440000      -1.94600000      -0.80860000
C        0.03850000      -2.20400000       0.39610000
C        0.30870000      -3.48390000       1.11720000
C        1.39540000      -3.47420000       2.16850000
O        1.91770000      -2.49170000       2.63810000
N        0.34300000      -0.95810000       0.90920000
H        1.18430000       1.71160000       0.28990000
H       -0.29250000       1.96850000      -0.65830000
H       -0.38090000       1.80240000       1.10630000
H       -0.96120000      -2.65970000      -1.51580000
H       -0.58290000      -3.85210000       1.65750000
H        0.53900000      -4.28640000       0.40480000
H        1.67310000      -4.48670000       2.53400000
H        0.89200000      -0.82680000       1.74510000
