18
Properties=species:S:1:pos:R:3 gdb_46736=T pbc="F F F"
O       -0.17820000       0.05710000       0.58630000
C       -0.14000000       1.19110000       0.17430000
C       -1.31250000       2.04930000      -0.34060000
C       -0.91480000       3.48850000       0.06570000
C        0.62620000       3.43770000      -0.00120000
C        1.56370000       3.73060000       1.18870000
C        1.25490000       2.84700000       2.37410000
C        1.94460000       2.25060000       1.18370000
N        0.98460000       2.00370000       0.09930000
H       -1.38700000       1.94630000      -1.42950000
H       -2.25000000       1.69700000       0.09150000
H       -1.34310000       4.25580000      -0.58260000
H       -1.24470000       3.69520000       1.08890000
H        1.01190000       3.87930000      -0.92710000
H        2.21440000       4.59100000       1.26220000
H        1.89430000       3.01980000       3.23420000
H        0.24020000       2.55220000       2.62530000
H        2.91030000       1.76400000       1.20420000
