19
Properties=species:S:1:pos:R:3 gdb_98069=T pbc="F F F"
C        0.28040000       1.57530000      -0.02330000
C        0.02700000       0.05010000      -0.07390000
C       -1.46450000      -0.28600000      -0.02510000
C        0.67620000      -0.51040000      -1.32450000
O        0.07880000      -0.83570000      -2.32520000
C        2.21280000      -0.66540000      -1.31170000
O        2.86820000      -0.45710000      -0.31310000
C        2.87810000      -1.10910000      -2.59740000
O        4.26230000      -1.21770000      -2.44440000
H        1.34830000       1.80590000      -0.02640000
H       -0.19050000       2.07630000      -0.87540000
H       -0.15210000       1.98740000       0.89280000
H        0.55130000      -0.39250000       0.78120000
H       -1.98470000       0.12910000      -0.89260000
H       -1.63050000      -1.36700000      -0.02760000
H       -1.91550000       0.12840000       0.88110000
H        2.42450000      -2.06380000      -2.90540000
H        2.61050000      -0.38840000      -3.38670000
H        4.44890000      -0.97630000      -1.52460000
