19
Properties=species:S:1:pos:R:3 gdb_40818=T pbc="F F F"
C        0.25200000       1.45260000      -0.03650000
O        1.07650000       0.32110000      -0.33700000
C       -0.28930000       0.09230000       0.00590000
C       -0.51630000      -0.63220000       1.31930000
O       -1.87230000      -0.40600000       1.66650000
C       -2.35150000      -1.28690000       2.67150000
C       -2.35360000      -2.73640000       2.18370000
C       -1.02460000      -3.05700000       1.55240000
C       -0.17890000      -2.09600000       1.18990000
H        0.48380000       1.96450000       0.89630000
H        0.02390000       2.09990000      -0.88140000
H       -0.92010000      -0.25180000      -0.81390000
H        0.15310000      -0.17240000       2.07040000
H       -1.72940000      -1.20190000       3.57720000
H       -3.35890000      -0.94200000       2.91960000
H       -2.55160000      -3.41000000       3.02720000
H       -3.16910000      -2.89540000       1.46490000
H       -0.76190000      -4.10240000       1.41350000
H        0.79760000      -2.31760000       0.76900000
