18
Properties=species:S:1:pos:R:3 gdb_9061=T pbc="F F F"
C       -0.10440000       1.56030000      -0.09590000
C       -0.00690000       0.02690000      -0.01190000
C        0.76050000      -0.46700000       1.23360000
C        2.25160000      -0.06730000       1.24090000
C        2.96380000      -0.61130000       2.39050000
C        3.52560000      -1.07160000       3.34810000
C       -1.40750000      -0.55580000       0.02970000
O       -1.85750000      -1.34270000      -0.76140000
H        0.88530000       2.02000000      -0.15730000
H       -0.66640000       1.86910000      -0.98250000
H       -0.61050000       1.97170000       0.78510000
H        0.47130000      -0.36870000      -0.91520000
H        0.28260000      -0.08160000       2.14260000
H        0.69770000      -1.55930000       1.28660000
H        2.72590000      -0.41890000       0.31530000
H        2.35170000       1.02430000       1.24050000
H        4.03410000      -1.47400000       4.18890000
H       -2.02220000      -0.19040000       0.88830000
