19
Properties=species:S:1:pos:R:3 gdb_40051=T pbc="F F F"
C        0.01450000       1.51850000      -0.00550000
C        1.31480000       0.74620000      -0.02580000
C        0.00090000       0.02030000       0.02750000
C       -0.45860000      -0.83240000       1.22600000
C       -1.18130000      -1.97150000       0.47030000
C       -2.46220000      -1.41370000      -0.18490000
O       -1.92430000      -0.63260000      -1.26520000
C       -0.51230000      -0.80640000      -1.14980000
O       -0.35460000      -2.13810000      -0.69710000
H       -0.24980000       2.05270000       0.90130000
H       -0.30770000       2.00980000      -0.91800000
H        1.88350000       0.72030000      -0.95040000
H        1.92720000       0.74980000       0.87050000
H        0.38860000      -1.22690000       1.79390000
H       -1.12070000      -0.29820000       1.91330000
H       -1.28920000      -2.91720000       0.99860000
H       -3.10150000      -2.20650000      -0.58920000
H       -3.04970000      -0.78180000       0.49030000
H       -0.04230000      -0.65190000      -2.12100000
