19
Properties=species:S:1:pos:R:3 gdb_35919=T pbc="F F F"
N       -0.11200000      -1.12270000      -0.24880000
C       -0.05520000       0.02460000      -0.12520000
C        0.00290000       1.49020000       0.00210000
N       -0.69110000       1.90760000       1.22120000
C       -0.70230000       3.36740000       1.33730000
C        0.70070000       3.86810000       1.69860000
C        1.78910000       3.18800000       0.86750000
C        2.28410000       1.81380000       1.25460000
C        1.44780000       1.98020000       0.01750000
H       -0.47890000       1.90420000      -0.90540000
H       -1.63440000       1.53760000       1.21670000
H       -1.03790000       3.84840000       0.39930000
H       -1.41670000       3.64410000       2.11770000
H        0.74080000       4.95120000       1.54460000
H        0.88390000       3.69240000       2.76410000
H        2.53200000       3.85660000       0.44480000
H        3.33580000       1.58190000       1.13040000
H        1.80900000       1.34730000       2.11070000
H        1.94410000       1.88320000      -0.94220000
