12
Properties=species:S:1:pos:R:3 gdb_20325=T pbc="F F F"
C        0.01240000      -1.20920000      -0.12720000
C        0.01400000      -0.01190000      -0.04110000
C        0.01340000       1.44370000       0.07010000
C        1.39530000       2.03010000       0.03070000
N        1.89200000       2.68990000       1.04270000
O        3.16490000       3.06480000       0.59340000
C        3.27450000       2.58000000      -0.64380000
N        2.23340000       1.93570000      -1.06160000
H        0.01140000      -2.26810000      -0.20640000
H       -0.56940000       1.87630000      -0.75260000
H       -0.46310000       1.75620000       1.00480000
H        4.20040000       2.76940000      -1.16690000
