17
Properties=species:S:1:pos:R:3 gdb_83104=T pbc="F F F"
O        0.51950000       0.90170000       0.82940000
C        0.06870000      -0.25010000       0.16650000
C       -1.47170000      -0.48190000      -0.00900000
C       -2.37840000       0.76250000       0.10900000
C       -2.64650000       1.16430000      -1.32200000
C       -2.07170000       0.35660000      -2.21360000
C       -1.26500000      -0.73050000      -1.55060000
C        0.20990000      -0.29230000      -1.36180000
O        1.08310000       0.07980000      -2.09280000
H        1.14050000       1.34570000       0.23950000
H        0.52970000      -1.15260000       0.60050000
H       -1.83990000      -1.32720000       0.57090000
H       -3.30820000       0.54130000       0.64670000
H       -1.87430000       1.55860000       0.66930000
H       -3.24930000       2.03020000      -1.57450000
H       -2.10960000       0.47100000      -3.29030000
H       -1.41300000      -1.73560000      -1.95420000
