18
Properties=species:S:1:pos:R:3 gdb_90571=T pbc="F F F"
O       -0.02390000       1.43820000      -0.09820000
C        0.00750000       0.02730000       0.07890000
C        0.14610000      -0.55710000       1.52750000
C       -1.19070000      -1.27430000       1.32820000
C       -2.27680000      -0.27650000       1.04320000
N       -2.31730000       1.04820000       1.59370000
C       -3.26390000       1.42560000       2.49040000
O       -4.11260000       0.69560000       2.96020000
C       -1.35320000      -0.63940000      -0.07670000
H        0.86540000       1.78180000       0.03710000
H        0.74690000      -0.42280000      -0.59400000
H        1.00220000      -1.22650000       1.62910000
H        0.16480000       0.18060000       2.33540000
H       -1.41510000      -2.28710000       1.63770000
H       -3.26690000      -0.71490000       0.97620000
H       -1.68540000       1.73050000       1.19940000
H       -3.17820000       2.50030000       2.74940000
H       -1.72050000      -1.06990000      -1.00050000
