17
Properties=species:S:1:pos:R:3 gdb_42055=T pbc="F F F"
C        0.03560000       1.46670000      -0.09990000
O        1.32480000       2.08400000      -0.09170000
C        2.09140000       2.06950000       1.11470000
C        1.56950000       2.89720000       2.28280000
C        0.74220000       2.41450000       3.23100000
C        0.21400000       1.11160000       3.02740000
C       -0.01020000       0.09990000       2.39620000
C       -0.11420000      -0.69030000       1.22020000
C       -0.01240000      -0.05000000       0.03870000
H       -0.60850000       1.91420000       0.66550000
H       -0.37100000       1.73950000      -1.07850000
H        2.25400000       1.03990000       1.45310000
H        3.05960000       2.47540000       0.80600000
H        1.92630000       3.92040000       2.36860000
H        0.44290000       3.01860000       4.08150000
H       -0.20850000      -1.77030000       1.27220000
H       -0.00710000      -0.63560000      -0.87710000
