21
Properties=species:S:1:pos:R:3 gdb_59326=T pbc="F F F"
C        0.00320000       1.58790000       0.11390000
C        0.04020000       0.05410000       0.05190000
C        0.80430000      -0.50260000       1.26170000
C       -1.39460000      -0.52400000      -0.05830000
C       -2.14460000      -0.12690000      -1.35130000
C       -2.64640000      -1.43970000      -1.97440000
O       -3.32680000      -1.53990000      -2.96870000
C       -2.13540000      -2.53610000      -1.12070000
C       -1.46000000      -2.03730000      -0.07960000
H        1.01700000       1.99950000       0.14340000
H       -0.50820000       2.02430000      -0.74880000
H       -0.51870000       1.92660000       1.01720000
H        0.57980000      -0.24180000      -0.85930000
H        0.26690000      -0.29670000       2.19540000
H        0.96140000      -1.58270000       1.19480000
H        1.79050000      -0.03430000       1.34090000
H       -1.94680000      -0.17020000       0.82600000
H       -2.98780000       0.54800000      -1.18240000
H       -1.48650000       0.36670000      -2.07430000
H       -2.32300000      -3.57990000      -1.33860000
H       -1.00600000      -2.63610000       0.70230000
