18
Properties=species:S:1:pos:R:3 gdb_8767=T pbc="F F F"
C       -0.13890000       1.50820000       0.05500000
C        0.01300000      -0.02410000       0.00140000
C       -1.38440000      -0.62590000       0.01790000
O       -1.95270000      -1.00570000       1.00730000
C        0.79520000      -0.51140000      -1.24920000
C        2.24550000       0.00910000      -1.29540000
C        0.77250000      -1.97370000      -1.31410000
C        0.75530000      -3.17560000      -1.33830000
H        0.83340000       2.00240000       0.11700000
H       -0.65540000       1.88740000      -0.83450000
H       -0.72010000       1.79910000       0.93430000
H        0.52160000      -0.37240000       0.90640000
H       -1.88720000      -0.64750000      -0.97840000
H        0.26900000      -0.12710000      -2.13600000
H        2.79550000      -0.30210000      -0.40230000
H        2.76370000      -0.39540000      -2.16830000
H        2.27240000       1.09960000      -1.35920000
H        0.73160000      -4.23700000      -1.36680000
