15
Properties=species:S:1:pos:R:3 gdb_42511=T pbc="F F F"
O        0.26990000       0.29560000      -1.02290000
C        0.24320000       1.36220000      -0.49520000
C       -0.89630000       2.38760000      -0.13870000
C        0.23110000       3.44920000       0.13110000
C        1.28150000       2.33330000       0.04750000
C        2.40430000       2.00880000       0.94510000
O        2.61310000       2.45450000      -0.39300000
C       -1.88960000       2.66500000      -1.14800000
C       -2.69480000       2.89070000      -2.01150000
H       -1.36810000       2.06720000       0.79830000
H        0.32390000       4.15820000      -0.69350000
H        0.16010000       3.98820000       1.07590000
H        2.66960000       2.71990000       1.72610000
H        2.65360000       0.96650000       1.13540000
H       -3.41120000       3.08720000      -2.77020000
