18
Properties=species:S:1:pos:R:3 gdb_12802=T pbc="F F F"
O        0.10970000       1.42590000      -0.25490000
C        0.02490000       0.05550000       0.04560000
C       -0.23190000      -0.94070000      -1.05130000
C       -1.30330000      -0.65640000      -0.00420000
C       -1.65830000      -1.71260000       1.02730000
C       -0.47040000      -2.19820000       1.81330000
C        0.70060000      -1.56520000       1.86530000
C        1.00450000      -0.27740000       1.15100000
H       -0.36480000       1.59100000      -1.07530000
H       -0.39600000      -0.56220000      -2.05640000
H        0.28010000      -1.89730000      -1.01340000
H       -2.14140000      -0.05700000      -0.35160000
H       -2.40220000      -1.30190000       1.72610000
H       -2.15630000      -2.56430000       0.54180000
H       -0.60730000      -3.11610000       2.37970000
H        1.50250000      -1.97440000       2.47480000
H        2.02580000      -0.29400000       0.74770000
H        0.98610000       0.55580000       1.86820000
