17
Properties=species:S:1:pos:R:3 gdb_103055=T pbc="F F F"
C        0.13480000       1.10380000       0.43800000
O       -0.07830000      -0.10370000      -0.29020000
C       -1.33190000      -0.65520000      -0.10160000
C       -2.40940000       0.01430000      -0.80820000
N       -3.25780000       0.57030000      -1.36430000
C       -1.46990000      -2.15990000      -0.01390000
C       -0.27860000      -2.71420000       0.77670000
N       -0.54130000      -1.74940000       1.90250000
C       -1.75630000      -1.29850000       1.21150000
H        1.14910000       1.42930000       0.20100000
H       -0.57370000       1.88350000       0.12970000
H        0.04840000       0.92420000       1.51500000
H       -2.11120000      -2.71120000      -0.68860000
H       -0.44440000      -3.75470000       1.06760000
H        0.70980000      -2.60370000       0.32520000
H       -0.77960000      -2.24970000       2.75190000
H       -2.67290000      -1.03230000       1.72430000
