15
Properties=species:S:1:pos:R:3 gdb_259=T pbc="F F F"
C       -0.12800000       1.49350000       0.11520000
N        0.02210000       0.04670000       0.03970000
C        0.76340000      -0.47730000       1.17640000
C       -1.25230000      -0.61890000      -0.15580000
C       -1.78640000      -0.39590000      -1.56260000
O       -2.95260000      -0.37880000      -1.85570000
H        0.85810000       1.96510000       0.16170000
H       -0.63850000       1.86810000      -0.77790000
H       -0.70900000       1.82160000       0.99810000
H        0.25610000      -0.31030000       2.14530000
H        0.91860000      -1.55380000       1.05540000
H        1.74540000       0.00360000       1.22590000
H       -1.09880000      -1.70350000      -0.06030000
H       -2.03500000      -0.33960000       0.57300000
H       -0.98150000      -0.27480000      -2.32330000
