20
Properties=species:S:1:pos:R:3 gdb_109746=T pbc="F F F"
C       -1.81200000       0.13260000       1.76080000
N       -0.90330000      -0.53290000       0.82970000
C       -0.92160000      -0.24510000      -0.58800000
C       -1.86970000       0.73360000      -1.25310000
O       -3.10690000       0.10330000      -1.56620000
C        0.25980000       0.17370000       0.26490000
C        0.56540000       1.61740000       0.53370000
C        2.04500000       1.95110000       0.60350000
O       -0.28430000       2.47050000       0.70320000
H       -1.98270000       1.19640000       1.57280000
H       -2.76560000      -0.40650000       1.73760000
H       -1.40240000       0.02810000       2.77020000
H       -0.75550000      -1.13220000      -1.20020000
H       -2.00340000       1.63860000      -0.65500000
H       -1.44150000       1.03590000      -2.21490000
H       -3.57010000      -0.06060000      -0.73880000
H        1.14890000      -0.45210000       0.21220000
H        2.55820000       1.61900000      -0.30620000
H        2.17490000       3.02570000       0.73320000
H        2.51170000       1.41950000       1.44110000
