14
Properties=species:S:1:pos:R:3 gdb_36757=T pbc="F F F"
C        0.02390000      -3.75570000      -0.01850000
C        0.03720000      -2.54870000      -0.01220000
C        0.04980000      -1.18860000      -0.00500000
C        0.06810000       0.02010000       0.00130000
C        0.04240000       1.47090000       0.00940000
O        1.37220000       1.97550000      -0.00060000
C        1.39230000       3.38340000       0.00670000
C        2.78300000       3.84220000      -0.00400000
N        3.86670000       4.23940000      -0.01220000
H        0.01600000      -4.81770000      -0.02410000
H       -0.51280000       1.84060000      -0.86970000
H       -0.49590000       1.83110000       0.90280000
H        0.87660000       3.80160000      -0.87340000
H        0.89350000       3.79210000       0.90100000
