14
Properties=species:S:1:pos:R:3 gdb_130234=T pbc="F F F"
N        0.07920000       1.40860000       0.08200000
C       -0.01130000       0.03920000      -0.04220000
N       -1.20760000      -0.46740000      -0.11530000
O       -1.23990000      -1.87580000      -0.35940000
C       -0.12340000      -2.61360000      -0.45010000
N       -0.11260000      -3.86970000      -0.66140000
C        1.15800000      -1.88250000      -0.28720000
N        2.25650000      -2.64210000      -0.34790000
N        1.20850000      -0.59950000      -0.09860000
H        0.91240000       1.72030000       0.55700000
H       -0.77330000       1.86630000       0.36800000
H       -1.05870000      -4.24010000      -0.75210000
H        2.13510000      -3.62840000      -0.51780000
H        3.16590000      -2.22130000      -0.26750000
