11
Properties=species:S:1:pos:R:3 gdb_66=T pbc="F F F"
C       -0.00750000       1.55570000       0.08650000
C        0.01210000       0.02100000       0.04940000
O       -1.29150000      -0.52790000       0.22130000
C        0.65090000      -0.47720000      -1.17430000
C        1.13900000      -0.86580000      -2.20210000
H        1.00820000       1.95970000       0.04930000
H       -0.56270000       1.95190000      -0.76980000
H       -0.49330000       1.88930000       1.00700000
H        0.57810000      -0.34460000       0.91460000
H       -1.78520000      -0.35900000      -0.58910000
H        1.58080000      -1.22370000      -3.09920000
