21
Properties=species:S:1:pos:R:3 gdb_90680=T pbc="F F F"
C       -0.04790000       1.51800000       0.00340000
C        0.03120000      -0.00330000      -0.03900000
C        1.18470000      -0.56730000      -0.93610000
C        1.85430000      -1.14350000       0.31840000
C        0.73720000      -0.60800000       1.18980000
C        0.95530000      -2.11060000       1.07840000
C        0.00620000      -3.09010000       0.46440000
C       -0.08600000      -4.43080000       1.17710000
O       -0.65470000      -2.86070000      -0.52830000
H        0.92800000       1.96140000       0.23440000
H       -0.37870000       1.91790000      -0.96100000
H       -0.75660000       1.85690000       0.76760000
H       -0.94940000      -0.43070000      -0.25390000
H        0.90170000      -1.27780000      -1.71280000
H        1.78250000       0.23620000      -1.37520000
H        2.92100000      -1.17050000       0.50990000
H        0.79080000      -0.14090000       2.16770000
H        1.45660000      -2.50250000       1.96040000
H        0.89760000      -4.91380000       1.20840000
H       -0.40160000      -4.28720000       2.21710000
H       -0.79770000      -5.07630000       0.66140000
