20
Properties=species:S:1:pos:R:3 gdb_81167=T pbc="F F F"
C       -0.51960000       1.30260000      -0.21950000
N       -0.11640000      -0.09650000      -0.10380000
C        1.16290000      -0.45530000      -0.83200000
C        1.99780000       0.05890000       0.37250000
C        0.73610000      -0.44730000       1.10930000
C        0.81490000      -1.98560000       0.90630000
C        1.16050000      -1.97890000      -0.62100000
C        0.29100000       0.02540000       2.45380000
O        0.99900000       0.59190000       3.24880000
H        0.26730000       2.05070000      -0.03230000
H       -0.90230000       1.46570000      -1.23230000
H       -1.34170000       1.50030000       0.47570000
H        1.28310000      -0.06670000      -1.84390000
H        2.95650000      -0.41880000       0.59080000
H        2.10800000       1.14140000       0.40760000
H        1.58980000      -2.44030000       1.52780000
H       -0.14240000      -2.46490000       1.11920000
H        0.39380000      -2.46940000      -1.22270000
H        2.12960000      -2.43490000      -0.83770000
H       -0.77560000      -0.20220000       2.68580000
