21
Properties=species:S:1:pos:R:3 gdb_83224=T pbc="F F F"
C       -0.01010000       1.54890000      -0.05890000
C       -0.01480000       0.01390000      -0.01180000
C       -1.45870000      -0.52130000       0.00490000
C        0.77020000      -0.59640000      -1.20660000
O        1.51130000      -1.73140000      -0.72820000
C        1.56730000      -1.69860000       0.67630000
C        2.25160000      -0.49530000       1.26740000
O        2.99160000       0.35320000       0.43820000
C        0.73250000      -0.55890000       1.19370000
H        1.01220000       1.93170000      -0.03200000
H       -0.49770000       1.91430000      -0.97030000
H       -0.55710000       1.96490000       0.79390000
H       -2.01070000      -0.17130000      -0.87440000
H       -1.47390000      -1.61600000       0.00070000
H       -1.99800000      -0.17840000       0.89440000
H        0.10880000      -0.94660000      -2.00640000
H        1.46160000       0.14200000      -1.62580000
H        1.63620000      -2.68870000       1.11310000
H        2.66970000      -0.59990000       2.26780000
H        3.38320000      -0.19820000      -0.24940000
H        0.19150000      -0.62900000       2.13140000
