19
Properties=species:S:1:pos:R:3 gdb_123270=T pbc="F F F"
C        0.00360000       1.44500000      -0.57490000
C        1.28380000       2.24140000      -0.58320000
C        2.44560000       1.73850000      -0.15850000
O        2.53450000       0.52740000       2.82320000
C        1.93960000       0.37990000       1.79030000
C        0.41560000       0.21590000       1.62780000
C        0.18310000       0.07490000       0.10860000
C        1.51280000      -0.55900000      -0.37010000
C        2.53700000       0.31850000       0.36780000
H       -0.78480000       2.01500000      -0.06310000
H       -0.35600000       1.31090000      -1.60530000
H        1.23410000       3.26260000      -0.95270000
H        3.34350000       2.34760000      -0.12960000
H        0.12380000      -0.69420000       2.16500000
H       -0.11740000       1.04780000       2.09750000
H       -0.68050000      -0.55850000      -0.10960000
H        1.58660000      -1.60440000      -0.05050000
H        1.63500000      -0.52010000      -1.45590000
H        3.56240000      -0.05120000       0.37810000
