21
Properties=species:S:1:pos:R:3 gdb_121047=T pbc="F F F"
C       -0.03730000       1.49040000       0.08510000
C       -0.03880000      -0.00970000      -0.15580000
O       -1.33350000      -0.50670000       0.13320000
C       -1.46390000      -1.90410000       0.02060000
C       -2.82280000      -2.33190000       0.60390000
C       -3.08400000      -3.71830000       0.00150000
C       -2.36390000      -3.70480000      -1.35350000
O       -2.46320000      -4.54240000      -2.21120000
C       -1.49040000      -2.44770000      -1.42150000
H        0.95080000       1.90950000      -0.12700000
H       -0.76930000       1.98290000      -0.56120000
H       -0.29470000       1.71240000       1.12460000
H        0.23720000      -0.23000000      -1.19920000
H        0.70690000      -0.50680000       0.48740000
H       -0.65010000      -2.39840000       0.57920000
H       -2.82590000      -2.31470000       1.69560000
H       -3.57360000      -1.61200000       0.25940000
H       -2.62630000      -4.51460000       0.60330000
H       -4.13780000      -3.98030000      -0.11810000
H       -2.00090000      -1.71790000      -2.06500000
H       -0.52010000      -2.66660000      -1.87170000
