12
Properties=species:S:1:pos:R:3 gdb_132395=T pbc="F F F"
F        0.00190000       0.02930000       0.00350000
C       -0.01640000       1.36230000       0.01070000
C       -1.24380000       2.01080000       0.03070000
C       -1.22930000       3.39900000       0.03780000
F       -2.39280000       4.04980000       0.05690000
C       -0.05410000       4.13790000       0.02580000
C        1.14080000       3.43140000       0.00590000
F        2.28630000       4.11350000      -0.00600000
C        1.19270000       2.04420000      -0.00200000
H       -2.17290000       1.45760000       0.04040000
H       -0.06890000       5.21920000       0.03170000
H        2.13640000       1.51630000      -0.01750000
