17
Properties=species:S:1:pos:R:3 gdb_6036=T pbc="F F F"
C       -0.09890000       1.60430000       0.00870000
C       -0.02660000       0.07380000       0.07160000
N        0.66500000      -0.44170000       1.26740000
H       -0.01600000      -0.56340000       2.01260000
H        1.50320000      -1.57640000       0.04040000
H        1.35700000       0.22380000       1.59810000
C       -1.44300000      -0.55740000       0.05510000
O       -2.16680000      -0.28550000       1.24430000
C        0.68500000      -0.47010000      -1.19140000
O        1.52170000      -1.48160000      -0.94070000
O        0.46410000      -0.04990000      -2.29760000
H        0.90060000       2.04350000       0.09470000
H       -0.52090000       1.92710000      -0.94510000
H       -0.70550000       1.99820000       0.83110000
H       -1.97290000      -0.22180000      -0.84340000
H       -1.34720000      -1.64680000       0.00880000
H       -2.49890000       0.61630000       1.20010000
