23
Properties=species:S:1:pos:R:3 gdb_59575=T pbc="F F F"
C       -0.14950000       1.50090000       0.06600000
C       -0.01050000      -0.02650000      -0.00730000
C        0.64620000      -0.45580000      -1.32670000
C        0.77050000      -0.55580000       1.19620000
C        0.14260000      -0.42660000       2.62610000
C        0.37460000      -1.93800000       2.85370000
O       -0.78570000      -2.73390000       2.53660000
C       -0.30600000      -2.97550000       1.19310000
C        0.93720000      -2.09350000       1.41280000
H        0.83370000       1.98490000       0.02110000
H       -0.74540000       1.88280000      -0.76950000
H       -0.63450000       1.81730000       0.99480000
H       -1.02300000      -0.45270000       0.02600000
H        1.65970000      -0.04480000      -1.40930000
H        0.72300000      -1.54520000      -1.40620000
H        0.07320000      -0.09800000      -2.18850000
H        1.76680000      -0.09680000       1.18670000
H        0.68600000       0.23690000       3.30380000
H       -0.91930000      -0.16710000       2.65080000
H        0.86840000      -2.26670000       3.77200000
H       -0.07770000      -4.03820000       1.03950000
H       -1.02610000      -2.65830000       0.42950000
H        1.90310000      -2.53510000       1.16970000
