17
Properties=species:S:1:pos:R:3 gdb_5528=T pbc="F F F"
C        0.05360000       1.57350000       0.30390000
C       -0.01050000       0.08080000      -0.07040000
C       -1.39140000      -0.48740000      -0.09580000
C       -2.19050000      -0.85580000      -1.15740000
O       -1.79380000      -0.74730000      -2.46450000
C       -3.43360000      -1.33000000      -0.65440000
C       -3.36470000      -1.23790000       0.71870000
N       -2.13960000      -0.72740000       1.04410000
H        1.08750000       1.93420000       0.30290000
H       -0.52170000       2.17530000      -0.40580000
H       -0.36110000       1.75380000       1.30180000
H        0.42000000      -0.06260000      -1.06640000
H        0.62350000      -0.49140000       0.62200000
H       -2.46420000      -1.15550000      -3.01860000
H       -4.27240000      -1.69280000      -1.22970000
H       -4.08490000      -1.49500000       1.47830000
H       -1.81190000      -0.56710000       1.98000000
