21
Properties=species:S:1:pos:R:3 gdb_65809=T pbc="F F F"
C        0.19570000       1.39200000      -0.68750000
C       -0.16960000       0.10290000       0.04360000
C        0.39080000      -1.18340000      -0.64480000
C        1.57530000      -1.15980000       0.35810000
C        0.75170000      -0.19470000       1.25340000
O       -1.53240000       0.06660000       0.45800000
C       -2.53190000       0.38810000      -0.48910000
C       -2.61600000      -0.51080000      -1.64550000
C       -2.70400000      -1.23140000      -2.60370000
H        1.27680000       1.43530000      -0.84910000
H       -0.28080000       1.45550000      -1.67080000
H       -0.09310000       2.26730000      -0.09560000
H       -0.27970000      -2.02600000      -0.46670000
H        0.61660000      -1.12720000      -1.71220000
H        1.87040000      -2.11290000       0.80080000
H        2.46750000      -0.68490000      -0.05880000
H        1.26300000       0.65510000       1.71330000
H        0.18740000      -0.73110000       2.01980000
H       -3.47410000       0.34370000       0.06850000
H       -2.42680000       1.42150000      -0.85000000
H       -2.78070000      -1.87320000      -3.44650000
