19
Properties=species:S:1:pos:R:3 gdb_90544=T pbc="F F F"
C        0.14620000       1.54900000      -0.03010000
C        0.10100000       0.03730000      -0.18620000
C        1.29540000      -0.68770000      -0.89480000
C        1.45560000      -1.63190000       0.32820000
C        2.37800000      -1.08130000       1.42380000
O        1.32140000      -0.27230000       1.99110000
C        0.34710000      -0.83250000       1.07310000
C        2.87900000      -2.08240000       2.44840000
O        3.29130000      -3.17950000       2.17500000
H        1.04700000       1.85490000       0.50920000
H        0.14460000       2.04160000      -1.00810000
H       -0.71910000       1.91650000       0.53200000
H       -0.84540000      -0.26750000      -0.64700000
H        1.02300000      -1.19630000      -1.82180000
H        2.16830000      -0.05850000      -1.09450000
H        1.46510000      -2.70850000       0.17240000
H        3.23250000      -0.47540000       1.08290000
H       -0.51010000      -1.25260000       1.60580000
H        2.82210000      -1.70810000       3.49550000
