23
Properties=species:S:1:pos:R:3 gdb_92347=T pbc="F F F"
C        0.08860000       1.63660000       0.02040000
C        0.02220000       0.10740000       0.02270000
C        0.60610000      -0.49100000      -1.27780000
C        0.79630000      -2.01900000      -1.19270000
C       -0.46150000      -2.72990000      -0.66550000
O       -0.40350000      -2.62500000       0.76430000
C        0.84830000      -2.02110000       1.13290000
C        1.77230000      -2.33890000      -0.04700000
C        0.68270000      -0.49970000       1.27900000
H        1.12740000       1.98670000      -0.01430000
H       -0.43150000       2.05610000      -0.84780000
H       -0.37300000       2.05610000       0.92080000
H       -1.03580000      -0.18040000       0.06420000
H       -0.05090000      -0.23450000      -2.11820000
H        1.57910000      -0.02880000      -1.49510000
H        1.11450000      -2.42290000      -2.15780000
H       -1.39250000      -2.27460000      -1.02520000
H       -0.47010000      -3.79130000      -0.95040000
H        1.16420000      -2.47660000       2.07620000
H        2.05810000      -3.39560000      -0.04520000
H        2.67960000      -1.72980000      -0.06480000
H        1.67090000      -0.05170000       1.45330000
H        0.07120000      -0.26950000       2.15880000
