13
Properties=species:S:1:pos:R:3 gdb_3679=T pbc="F F F"
C       -0.05750000       1.56620000      -0.01930000
C       -0.00910000       0.07140000      -0.02370000
C       -0.12550000      -0.80640000      -1.08300000
N       -0.01530000      -2.06060000      -0.58540000
N        0.16960000      -2.07580000       0.75900000
C        0.17190000      -0.79280000       1.08470000
O        0.33330000      -0.37770000       2.36080000
H        0.87020000       1.99900000       0.37160000
H       -0.20830000       1.95750000      -1.02920000
H       -0.87200000       1.94190000       0.60990000
H       -0.27630000      -0.62460000      -2.13620000
H       -0.05580000      -2.93270000      -1.08090000
H        0.43610000      -1.16840000       2.90480000
