22
Properties=species:S:1:pos:R:3 gdb_119570=T pbc="F F F"
C       -0.17270000       1.55970000       0.06390000
C       -0.12440000       0.03190000       0.12690000
C        0.89490000      -0.49190000       1.15370000
C        0.99720000      -1.98700000       1.16070000
N       -0.06880000      -2.85490000       1.73500000
C        1.33790000      -2.98790000       2.20990000
C        2.01920000      -3.91620000       1.20710000
C        1.62190000      -2.89010000       0.07460000
O        0.76420000      -3.31540000      -0.94760000
H        0.80010000       1.97600000      -0.22130000
H       -0.90910000       1.90490000      -0.66820000
H       -0.44240000       1.98960000       1.03540000
H       -1.11740000      -0.36170000       0.37740000
H        0.12060000      -0.37930000      -0.85930000
H        1.88390000      -0.06770000       0.93200000
H        0.62810000      -0.13490000       2.15880000
H       -0.57490000      -2.29410000       2.42000000
H        1.57660000      -2.83240000       3.25530000
H        3.10060000      -3.99520000       1.34130000
H        1.58210000      -4.91340000       1.11140000
H        2.49730000      -2.44180000      -0.40220000
H       -0.05470000      -3.56760000      -0.49820000
