16
Properties=species:S:1:pos:R:3 gdb_8929=T pbc="F F F"
N        0.22540000       1.48400000      -0.09440000
C        0.06190000       0.03050000      -0.02730000
C        0.69690000      -0.60000000      -1.26580000
O        0.04900000      -0.04320000      -2.40090000
C        0.80520000      -0.45290000       1.24640000
O        2.10150000       0.08530000       1.29460000
C        0.01820000      -0.07550000       2.44650000
N       -0.60890000       0.24340000       3.36330000
H        0.06490000       1.78330000      -1.05090000
H       -0.45560000       1.95110000       0.49580000
H       -0.98830000      -0.29060000       0.02600000
H        1.77300000      -0.38300000      -1.26680000
H        0.56420000      -1.69130000      -1.22410000
H        0.55750000      -0.26950000      -3.18460000
H        0.89370000      -1.54540000       1.23790000
H        1.99000000       0.98930000       0.94720000
