16
Properties=species:S:1:pos:R:3 gdb_17999=T pbc="F F F"
O       -0.20140000       0.19570000       0.61090000
C        0.26670000       0.83470000      -0.29820000
C        1.21310000       1.99330000      -0.15240000
C        0.80700000       3.35370000      -0.82950000
C        1.03260000       4.05740000       0.53340000
O       -0.17460000       4.18710000       1.29860000
C        0.10010000       2.96020000       2.02660000
C        1.38530000       2.70490000       1.21540000
H        0.01280000       0.59240000      -1.35750000
H        2.17810000       1.65430000      -0.55010000
H        1.47360000       3.66880000      -1.63510000
H       -0.22910000       3.42310000      -1.16900000
H        1.64790000       4.96090000       0.55090000
H        0.28490000       3.16860000       3.08740000
H       -0.70250000       2.22490000       1.93710000
H        2.29930000       2.50800000       1.77250000
