21
Properties=species:S:1:pos:R:3 gdb_110130=T pbc="F F F"
C       -0.35470000      -1.50980000      -2.86940000
C       -1.24660000      -2.59770000      -2.26070000
C       -2.12050000      -2.07080000      -1.13500000
C       -2.67120000      -2.90540000      -0.02470000
C       -2.40760000      -4.38740000       0.14480000
O       -2.54100000      -4.80380000       1.49360000
C       -1.60200000      -1.84070000       0.29140000
C       -0.23140000      -2.21820000       0.69330000
O        0.40900000      -1.62510000       1.53070000
H        0.22870000      -1.90310000      -3.70710000
H       -0.95340000      -0.67180000      -3.24240000
H        0.34570000      -1.11060000      -2.12850000
H       -1.90510000      -3.00830000      -3.03680000
H       -0.62620000      -3.43380000      -1.92520000
H       -2.77850000      -1.26920000      -1.46460000
H       -3.65880000      -2.62610000       0.33330000
H       -3.16490000      -4.95110000      -0.41100000
H       -1.43190000      -4.67670000      -0.26800000
H       -1.91680000      -4.29590000       2.02320000
H       -1.94860000      -0.94930000       0.80360000
H        0.20390000      -3.10370000       0.18030000
