17
Properties=species:S:1:pos:R:3 gdb_30497=T pbc="F F F"
C        0.06600000       1.47460000       0.00850000
N        0.10950000       0.02600000      -0.08920000
C        0.57990000      -0.64680000       0.87050000
O        1.06110000       0.00250000       2.03220000
C        1.55820000      -0.73190000       3.04290000
N        1.66150000      -1.99970000       3.10280000
C        1.20500000      -2.71770000       1.98710000
C        1.34440000      -4.20360000       2.09850000
C        0.68550000      -2.08660000       0.91250000
H        1.06600000       1.91010000       0.13930000
H       -0.36760000       1.88000000      -0.90840000
H       -0.54360000       1.81310000       0.85730000
H        1.88620000      -0.09580000       3.86080000
H        2.39490000      -4.47250000       2.25520000
H        0.79390000      -4.56890000       2.97240000
H        0.97520000      -4.71230000       1.20580000
H        0.32770000      -2.62060000       0.04180000
