21
Properties=species:S:1:pos:R:3 gdb_61237=T pbc="F F F"
C       -0.13280000       1.74690000       0.40950000
C       -0.03680000       0.27130000      -0.00170000
C        0.79790000      -0.54690000       1.01870000
C        2.17990000      -0.08560000       1.12750000
N        3.27080000       0.29070000       1.19350000
C       -1.42440000      -0.33740000      -0.11860000
C       -2.23000000      -0.19190000      -1.36440000
N       -1.75840000      -1.50410000      -0.93930000
C       -0.74820000      -2.15370000      -1.76140000
H        0.86040000       2.19010000       0.52440000
H       -0.68000000       2.32110000      -0.34300000
H       -0.66250000       1.85410000       1.36320000
H        0.47250000       0.21690000      -0.96910000
H        0.33070000      -0.48880000       2.00960000
H        0.80850000      -1.60530000       0.73850000
H       -1.96560000      -0.33230000       0.82960000
H       -3.30350000      -0.02620000      -1.32370000
H       -1.73270000       0.27270000      -2.21680000
H       -0.02510000      -1.47200000      -2.23540000
H       -0.19470000      -2.88170000      -1.15900000
H       -1.25690000      -2.70300000      -2.55970000
