22
Properties=species:S:1:pos:R:3 gdb_98279=T pbc="F F F"
C       -0.03250000       1.36610000       0.03650000
O       -0.01890000      -0.06030000      -0.03230000
C        0.65830000      -0.56600000      -1.09820000
O        1.18720000       0.13420000      -1.93880000
N        0.65910000      -1.93120000      -1.08090000
C       -0.03510000      -2.68520000      -0.04630000
C        1.26330000      -2.63980000      -2.22010000
C        2.49150000      -3.45370000      -1.79270000
C        0.23160000      -3.49880000      -2.96260000
H        0.98180000       1.76390000       0.12530000
H       -0.49780000       1.79550000      -0.85440000
H       -0.61490000       1.61200000       0.92540000
H       -1.10890000      -2.78710000      -0.24930000
H        0.39600000      -3.68660000       0.01870000
H        0.08360000      -2.19750000       0.92080000
H        1.59710000      -1.84370000      -2.88730000
H        2.96890000      -3.89950000      -2.67090000
H        3.22380000      -2.81420000      -1.29240000
H        2.22910000      -4.27250000      -1.11370000
H       -0.62270000      -2.89480000      -3.28210000
H        0.68690000      -3.94290000      -3.85300000
H       -0.14160000      -4.31910000      -2.34000000
