15
Properties=species:S:1:pos:R:3 gdb_32280=T pbc="F F F"
O       -0.01230000       1.47050000       0.05000000
C        0.02510000       0.05750000      -0.00740000
C       -1.38340000      -0.46920000      -0.00070000
C       -2.51240000       0.33190000       0.05390000
N       -3.76620000      -0.15340000       0.05900000
C       -3.87000000      -1.47410000       0.00770000
N       -2.86580000      -2.35690000      -0.04740000
C       -1.64400000      -1.84550000      -0.05110000
O       -0.60300000      -2.69700000      -0.10550000
H        0.89210000       1.79510000       0.04680000
H        0.53960000      -0.29950000      -0.91440000
H        0.57440000      -0.37010000       0.84710000
H       -2.40140000       1.40990000       0.09510000
H       -4.87360000      -1.89210000       0.01130000
H       -0.98240000      -3.58750000      -0.13360000
