17
Properties=species:S:1:pos:R:3 gdb_12553=T pbc="F F F"
C        0.24990000       1.57110000       0.01460000
C       -0.05370000       0.06900000      -0.02620000
C        0.52680000      -0.55170000      -1.29920000
O        0.14690000      -1.90910000      -1.47150000
C        0.86700000      -2.78940000      -0.68680000
O        0.46690000      -2.86090000       0.67940000
C        0.52550000      -1.75260000       1.47230000
N        0.36530000      -0.52600000       1.23600000
H        1.33070000       1.74650000       0.04150000
H       -0.16230000       2.08400000      -0.86010000
H       -0.18120000       2.01190000       0.91570000
H       -1.14430000      -0.06670000      -0.08340000
H        0.14560000      -0.01720000      -2.17420000
H        1.62550000      -0.46680000      -1.29340000
H        0.69430000      -3.79460000      -1.07420000
H        1.94090000      -2.54070000      -0.71150000
H        0.70750000      -2.07170000       2.49930000
