18
Properties=species:S:1:pos:R:3 gdb_26193=T pbc="F F F"
C       -0.68370000       1.23820000       0.08240000
C        0.17060000      -0.01260000      -0.11540000
O        1.21120000       0.19760000      -1.07900000
C        0.75110000      -0.53570000       1.16840000
C        0.37320000      -0.41000000       2.49370000
C        1.28950000      -1.17900000       3.26370000
O        1.31220000      -1.34730000       4.61960000
C        2.20000000      -1.74890000       2.40270000
N        1.84850000      -1.34870000       1.13180000
H       -0.09780000       2.03980000       0.54550000
H       -1.05700000       1.58660000      -0.88390000
H       -1.54010000       1.02950000       0.73060000
H       -0.45070000      -0.78720000      -0.58570000
H        1.78200000       0.89280000      -0.72980000
H       -0.46580000       0.15690000       2.86910000
H        0.57100000      -0.86510000       4.99600000
H        3.05250000      -2.37760000       2.59420000
H        2.34090000      -1.55710000       0.28030000
