17
Properties=species:S:1:pos:R:3 gdb_19021=T pbc="F F F"
C       -0.03200000       1.57070000       0.08880000
C        0.06470000       0.06330000      -0.07320000
C        0.47530000      -0.72440000      -1.25010000
C        1.77290000      -0.27420000      -1.94480000
O        2.06050000       1.14490000      -2.01410000
C        2.86380000       1.07030000      -0.80030000
C        2.48630000      -0.40670000      -0.60630000
N        1.21980000      -0.85260000       0.10450000
H        0.51110000       2.12340000      -0.67200000
H       -1.08880000       1.84740000       0.01090000
H        0.30620000       1.87410000       1.08550000
H       -0.76320000      -0.42640000       0.44160000
H       -0.12530000      -1.54630000      -1.63190000
H        2.03850000      -0.80640000      -2.86040000
H        3.92700000       1.21110000      -1.03230000
H        2.56160000       1.79400000      -0.03950000
H        3.28310000      -1.11890000      -0.40000000
