15
Properties=species:S:1:pos:R:3 gdb_96797=T pbc="F F F"
C        0.05040000       1.42820000       0.04760000
N        0.06590000      -0.02530000       0.02460000
C        0.61220000      -0.64440000      -0.91550000
O        1.22950000      -0.05170000      -2.02360000
C        1.49890000      -0.98560000      -3.01120000
O        1.84350000      -0.66970000      -4.10630000
C        1.24350000      -2.34940000      -2.43770000
N        2.09220000      -2.56380000      -1.23820000
C        0.68720000      -2.12210000      -1.08150000
H        0.63190000       1.76940000       0.91100000
H        0.45000000       1.89770000      -0.85680000
H       -0.97970000       1.76330000       0.20600000
H        0.98310000      -3.16670000      -3.09650000
H        2.13310000      -3.56630000      -1.06050000
H       -0.04720000      -2.75530000      -0.60280000
