19
Properties=species:S:1:pos:R:3 gdb_56198=T pbc="F F F"
C       -0.04280000       1.41200000      -0.08410000
C        0.14170000      -0.07820000       0.06840000
O        0.29940000      -0.66770000       1.10730000
O        0.10480000      -0.68800000      -1.13650000
C        0.24210000      -2.11610000      -1.11610000
C        0.16910000      -2.61070000      -2.54130000
C        0.21520000      -4.14210000      -2.73640000
C       -1.14610000      -3.94450000      -3.43380000
O       -1.16120000      -2.53970000      -3.10260000
H        0.03260000       1.88890000       0.89230000
H        0.71310000       1.81870000      -0.76140000
H       -1.02100000       1.62130000      -0.52670000
H        1.20380000      -2.38890000      -0.66520000
H       -0.55600000      -2.55500000      -0.50940000
H        0.88350000      -2.05060000      -3.15980000
H        1.02950000      -4.52400000      -3.35260000
H        0.17000000      -4.71240000      -1.80580000
H       -1.13860000      -4.10720000      -4.51900000
H       -2.00040000      -4.47790000      -3.00180000
