18
Properties=species:S:1:pos:R:3 gdb_111366=T pbc="F F F"
C       -0.10110000       1.52440000      -0.06940000
C       -0.16690000       0.00170000       0.08860000
C        0.71280000      -0.53110000       1.21230000
C        0.76150000      -2.05240000       1.42520000
O        1.35000000      -2.63480000       0.25550000
C        2.21870000      -2.10740000       1.25030000
C        2.30050000      -0.58000000       1.03250000
C        2.88230000      -0.13790000      -0.22420000
N        3.34530000       0.21740000      -1.22250000
H        0.91030000       1.85690000      -0.32090000
H       -0.76600000       1.86000000      -0.87040000
H       -0.40610000       2.03300000       0.85230000
H       -1.20060000      -0.30230000       0.30030000
H        0.11550000      -0.49070000      -0.84730000
H        0.49340000      -0.01700000       2.15390000
H        0.09820000      -2.67830000       2.01010000
H        2.97720000      -2.75940000       1.66560000
H        2.80040000      -0.07400000       1.86210000
