17
Properties=species:S:1:pos:R:3 gdb_50701=T pbc="F F F"
O       -0.58170000       0.78600000      -0.64670000
C        0.15450000       1.04220000       0.27030000
C        1.35540000       1.96370000       0.16900000
C        1.43020000       2.68800000      -1.18280000
O        2.51770000       3.59590000      -1.19500000
C        2.32210000       4.70530000      -0.33830000
C        1.85490000       4.32540000       1.05720000
O        0.45430000       4.04470000       1.20840000
C        1.37710000       2.95970000       1.31580000
H       -0.00440000       0.59390000       1.27860000
H        2.24650000       1.32680000       0.29020000
H        1.60510000       1.97410000      -1.98920000
H        0.47940000       3.20080000      -1.37990000
H        3.28960000       5.21280000      -0.27660000
H        1.59270000       5.40940000      -0.77130000
H        2.27750000       4.90220000       1.87920000
H        1.47240000       2.54140000       2.31870000
