19
Properties=species:S:1:pos:R:3 gdb_55474=T pbc="F F F"
N        1.24740000      -0.66270000      -0.09270000
C        0.05240000       0.05760000      -0.06830000
O        0.04560000       1.27670000      -0.02970000
N       -1.10010000      -0.69690000      -0.02750000
C       -2.38470000      -0.02670000      -0.19990000
C       -3.39940000      -0.57980000       0.79540000
O       -3.49530000      -1.99370000       0.69450000
C       -2.25280000      -2.60430000       0.97560000
C       -1.16080000      -2.15030000      -0.00160000
H        2.02560000      -0.04270000      -0.26430000
H        1.27950000      -1.50070000      -0.65380000
H       -2.22290000       1.04160000      -0.05570000
H       -2.75970000      -0.19250000      -1.22160000
H       -3.11180000      -0.29350000       1.82010000
H       -4.39690000      -0.18340000       0.58770000
H       -1.93480000      -2.36660000       2.00440000
H       -2.40420000      -3.68470000       0.89690000
H       -1.38340000      -2.55200000      -1.00320000
H       -0.20510000      -2.55700000       0.33410000
