16
Properties=species:S:1:pos:R:3 gdb_42766=T pbc="F F F"
O       -0.01740000      -0.02230000      -0.16750000
C       -0.02920000       1.14860000       0.05560000
C       -1.04990000       2.30050000       0.03870000
C       -0.81230000       3.00020000       1.38440000
C        0.75300000       3.01070000       1.39230000
C        1.01900000       2.31480000       0.03850000
N       -0.03080000       3.01450000      -0.82840000
C        2.35740000       2.16840000      -0.44750000
C        3.47910000       2.01410000      -0.85190000
H       -2.06290000       2.19070000      -0.34190000
H       -1.22780000       4.00950000       1.37710000
H       -1.24340000       2.44490000       2.22050000
H        1.16460000       4.02110000       1.38780000
H        1.18960000       2.45250000       2.22280000
H       -0.01560000       2.58140000      -1.75330000
H        4.46980000       1.87840000      -1.20970000
