16
Properties=species:S:1:pos:R:3 gdb_5621=T pbc="F F F"
C       -0.58630000       1.02250000       0.04880000
N        0.40570000      -0.03130000      -0.18640000
C        0.91130000      -0.66640000       0.98300000
C        1.72910000      -0.21440000       2.00250000
N        1.89330000      -1.24680000       2.88190000
C        1.19660000      -2.36600000       2.45910000
C        0.58220000      -2.02100000       1.28010000
O       -0.20420000      -2.79540000       0.49040000
H       -0.20840000       1.86600000       0.64750000
H       -0.93820000       1.41040000      -0.91270000
H       -1.44240000       0.59590000       0.57920000
H        1.15620000       0.32350000      -0.76810000
H        2.20200000       0.74120000       2.16320000
H        2.44790000      -1.20660000       3.71710000
H        1.20760000      -3.28670000       3.01630000
H       -0.40240000      -2.23520000      -0.27620000
