19
Properties=species:S:1:pos:R:3 gdb_74103=T pbc="F F F"
C       -0.29640000       1.54370000       0.02220000
C        0.00110000       0.07140000      -0.00250000
C       -0.10910000      -0.66010000      -1.12320000
C        0.11640000      -2.11890000      -1.18400000
O       -0.26780000      -2.78390000      -2.12990000
C        0.82890000      -2.73780000      -0.02910000
C        2.18640000      -2.16440000       0.36180000
C        1.00080000      -1.92370000       1.24150000
C        0.37390000      -0.54580000       1.32440000
H        0.59290000       2.11520000       0.31650000
H       -0.63340000       1.90680000      -0.95130000
H       -1.07110000       1.77330000       0.76500000
H       -0.44110000      -0.20810000      -2.05360000
H        0.70610000      -3.81240000       0.03870000
H        2.93910000      -2.87170000       0.69030000
H        2.56650000      -1.34020000      -0.23210000
H        0.97130000      -2.48680000       2.16900000
H        1.04650000       0.13670000       1.86300000
H       -0.53830000      -0.58920000       1.93840000
