18
Properties=species:S:1:pos:R:3 gdb_32811=T pbc="F F F"
C        0.11760000       1.54020000      -0.12100000
C       -0.17020000       0.07390000      -0.38870000
O        1.05940000      -0.56310000      -0.74310000
C        0.95150000      -1.89870000      -1.04650000
C        1.26350000      -2.39980000      -2.28780000
O        1.68180000      -1.78280000      -3.42020000
N        1.11830000      -3.75550000      -2.25390000
C        0.70260000      -4.13810000      -0.99060000
C        0.59420000      -3.00800000      -0.21870000
H        0.84250000       1.64660000       0.69100000
H        0.52930000       2.02340000      -1.01220000
H       -0.80130000       2.06210000       0.16200000
H       -0.59410000      -0.40780000       0.50350000
H       -0.89820000      -0.04820000      -1.20390000
H        1.78710000      -0.85090000      -3.19210000
H        1.30700000      -4.36440000      -3.03020000
H        0.52240000      -5.17460000      -0.76120000
H        0.29870000      -2.97220000       0.81810000
