14
Properties=species:S:1:pos:R:3 gdb_1646=T pbc="F F F"
C        0.03170000       1.53160000       0.00930000
C       -0.05300000       0.00850000       0.00280000
C       -1.46680000      -0.51470000       0.01340000
O       -2.45570000       0.18460000       0.02670000
C       -1.61020000      -2.05750000       0.00640000
N       -2.90330000      -2.44800000       0.01620000
O       -0.63950000      -2.79040000      -0.00650000
H        1.07500000       1.85770000       0.00140000
H       -0.46910000       1.95680000      -0.86460000
H       -0.45320000       1.94840000       0.89610000
H        0.45040000      -0.43270000      -0.86730000
H        0.46620000      -0.44080000       0.85930000
H       -3.62220000      -1.74250000       0.02680000
H       -3.13510000      -3.42650000       0.01330000
