23
Properties=species:S:1:pos:R:3 gdb_106520=T pbc="F F F"
C       -0.23880000       1.34620000      -0.01050000
O        0.19850000       0.00700000      -0.07820000
C        0.73790000      -0.51580000       1.11160000
C       -0.15260000      -0.59070000       2.39480000
C        0.58520000      -1.93460000       2.67860000
C        0.78590000      -2.05740000       1.14320000
C        1.94540000      -1.69140000       3.35450000
C        2.54670000      -0.34280000       2.89440000
C        2.13880000       0.03370000       1.45020000
H        0.58650000       2.05810000       0.13470000
H       -0.72180000       1.57120000      -0.96470000
H       -0.96920000       1.49730000       0.79800000
H       -0.09850000       0.20900000       3.13790000
H       -1.19600000      -0.76510000       2.11970000
H        0.01790000      -2.72490000       3.17390000
H       -0.09200000      -2.47490000       0.64410000
H        1.69230000      -2.54870000       0.77640000
H        1.84170000      -1.69020000       4.44570000
H        2.61500000      -2.52430000       3.10680000
H        2.18630000       0.44170000       3.56800000
H        3.63620000      -0.34560000       2.99780000
H        2.84610000      -0.36740000       0.71490000
H        2.16140000       1.12350000       1.34460000
