13
Properties=species:S:1:pos:R:3 gdb_42293=T pbc="F F F"
N       -0.36300000       1.11510000      -0.51580000
C       -0.13740000      -0.03630000      -0.08960000
O        0.98700000      -0.63710000       0.41740000
C        0.27970000      -1.90200000       0.63970000
C       -1.01130000      -1.28670000       0.07650000
C       -2.15500000      -1.10380000       1.04840000
O       -2.11500000      -1.40780000       2.21300000
C       -3.36530000      -0.49490000       0.46900000
N       -4.32610000      -0.05040000       0.00470000
H        0.46310000       1.71350000      -0.47650000
H        0.72160000      -2.70560000       0.04910000
H        0.24570000      -2.15350000       1.69990000
H       -1.37230000      -1.68340000      -0.87480000
