19
Properties=species:S:1:pos:R:3 gdb_69362=T pbc="F F F"
C        0.01700000       1.55420000       0.07300000
C        0.03850000       0.05450000       0.01210000
C       -0.88560000      -0.82960000       0.79680000
C        0.59810000      -0.96680000       1.01680000
C        1.21700000      -1.79600000      -0.12130000
O        0.82170000      -3.12620000      -0.23890000
C        0.60800000      -0.76120000      -1.15410000
C        2.72240000      -1.69960000      -0.11700000
O        3.42960000      -2.67500000      -0.20500000
H        0.99180000       1.98130000      -0.19020000
H       -0.72280000       1.96800000      -0.62280000
H       -0.24310000       1.90550000       1.07670000
H       -1.41260000      -0.34340000       1.61210000
H       -1.43990000      -1.63170000       0.31770000
H        1.04650000      -0.81050000       1.99180000
H        1.64120000      -3.64410000      -0.29100000
H       -0.11620000      -1.21190000      -1.83790000
H        1.36910000      -0.23290000      -1.73670000
H        3.14420000      -0.67740000      -0.03130000
