16
Properties=species:S:1:pos:R:3 gdb_18965=T pbc="F F F"
C        0.03460000       1.33500000      -0.22590000
O       -0.05020000       0.06530000       0.38360000
C       -1.30860000      -0.53650000       0.24130000
C       -1.60110000      -1.31060000      -1.06640000
C       -0.72610000      -2.52060000      -0.59960000
O       -1.76620000      -3.51590000      -0.83340000
C       -2.46970000      -2.35530000      -0.29940000
C       -1.35580000      -1.98730000       0.72890000
H        1.03490000       1.72560000      -0.02570000
H       -0.11390000       1.28070000      -1.31470000
H       -0.70890000       2.03340000       0.18870000
H       -2.10770000       0.13240000       0.59490000
H       -1.75060000      -0.96590000      -2.08880000
H        0.30570000      -2.77300000      -0.83270000
H       -3.54970000      -2.40690000      -0.17060000
H       -1.22170000      -2.39280000       1.73040000
