16
Properties=species:S:1:pos:R:3 gdb_85104=T pbc="F F F"
C        0.15840000       1.52270000      -0.17980000
C       -0.07300000       0.06250000       0.11050000
O        0.56830000      -0.81560000      -0.88650000
C        1.34400000      -1.42400000       0.05600000
N        2.24060000      -2.29300000      -0.00420000
C        0.78950000      -0.62290000       1.23610000
N        1.81480000       0.18910000       1.86410000
C       -0.01300000      -1.40770000       2.18150000
N       -0.64730000      -1.97970000       2.96080000
H        1.22420000       1.75550000      -0.17820000
H       -0.27110000       1.77600000      -1.15330000
H       -0.33360000       2.13680000       0.58140000
H       -1.13390000      -0.19070000       0.17330000
H        2.41560000      -2.60690000      -0.95960000
H        1.50050000       0.55040000       2.75890000
H        2.63400000      -0.38790000       2.03150000
