15
Properties=species:S:1:pos:R:3 gdb_12431=T pbc="F F F"
N       -0.05300000       1.20450000       0.62490000
C        0.04020000       0.10940000      -0.02150000
O        1.25670000      -0.46260000      -0.25270000
C        1.40670000      -1.29230000      -1.41860000
C        0.88450000      -2.68320000      -1.22240000
C       -0.40370000      -2.90530000      -0.92760000
C       -1.39640000      -1.85760000      -0.76460000
C       -1.19760000      -0.56350000      -0.44130000
H        0.88250000       1.54700000       0.85270000
H        0.89580000      -0.80990000      -2.26440000
H        2.47890000      -1.29330000      -1.62280000
H        1.57290000      -3.51370000      -1.34150000
H       -0.76160000      -3.92730000      -0.83350000
H       -2.42970000      -2.16800000      -0.90310000
H       -2.05930000       0.08700000      -0.34050000
