23
Properties=species:S:1:pos:R:3 gdb_121861=T pbc="F F F"
C        0.08850000       1.35710000       0.10870000
O        0.03760000      -0.04780000       0.08620000
C       -1.27590000      -0.54890000      -0.03930000
C       -1.19920000      -2.07110000      -0.07090000
C       -2.57860000      -2.77050000      -0.04890000
C       -3.42860000      -2.46160000      -1.29970000
C       -2.41010000      -4.21580000       0.11240000
C       -2.25860000      -5.40550000       0.22350000
C       -2.08040000      -6.84370000       0.36830000
H        1.13790000       1.64630000       0.20640000
H       -0.31630000       1.79780000      -0.81680000
H       -0.47500000       1.77480000       0.95880000
H       -1.89690000      -0.21390000       0.81160000
H       -1.74540000      -0.15090000      -0.95430000
H       -0.64230000      -2.38880000      -0.95950000
H       -0.61920000      -2.39810000       0.79770000
H       -3.12680000      -2.39480000       0.82820000
H       -2.90120000      -2.77130000      -2.20750000
H       -4.37790000      -3.00200000      -1.26080000
H       -3.64920000      -1.39290000      -1.37680000
H       -3.04410000      -7.36190000       0.42720000
H       -1.53070000      -7.26560000      -0.48060000
H       -1.51910000      -7.08670000       1.27760000
