13
Properties=species:S:1:pos:R:3 gdb_14600=T pbc="F F F"
O        0.13700000       0.38720000      -1.16180000
C        0.08620000       1.32770000      -0.39950000
N        1.11130000       1.74590000       0.39340000
C        2.42880000       1.12370000       0.33710000
C        3.49650000       2.09420000       0.13750000
C        4.38270000       2.90560000      -0.00390000
C        5.37790000       3.81890000      -0.16740000
C        6.26090000       4.62950000      -0.31140000
H       -0.81880000       1.94980000      -0.26020000
H        0.99090000       2.57090000       0.95900000
H        2.62320000       0.54590000       1.25130000
H        2.38660000       0.40720000      -0.49070000
H        7.03790000       5.34170000      -0.44030000
