20
Properties=species:S:1:pos:R:3 gdb_111167=T pbc="F F F"
O       -0.05870000       1.39990000       0.62000000
C        0.08870000       0.10980000       0.04900000
C       -1.26010000      -0.58640000       0.01810000
C       -1.49680000      -2.12220000       0.03380000
C       -1.03640000      -2.06900000       1.50880000
N       -1.92600000      -0.80940000       1.40890000
C       -2.85400000      -1.72990000       0.62720000
C       -4.19200000      -1.38340000       0.09230000
C       -4.02400000      -2.45890000       1.17250000
H       -0.60000000       1.28380000       1.41090000
H        0.44370000       0.25640000      -0.97760000
H        0.85870000      -0.47280000       0.57380000
H       -1.93240000      -0.02030000      -0.63370000
H       -1.27500000      -2.86540000      -0.73910000
H       -1.44270000      -2.81980000       2.18940000
H        0.01010000      -1.86400000       1.73190000
H       -4.63390000      -0.44000000       0.39600000
H       -4.45710000      -1.70510000      -0.90990000
H       -4.17780000      -3.49500000       0.88780000
H       -4.35670000      -2.21100000       2.17520000
