15
Properties=species:S:1:pos:R:3 gdb_48824=T pbc="F F F"
O       -0.91940000       1.19220000      -0.31020000
C        0.16940000       0.90940000       0.12920000
C        1.35790000       1.78760000      -0.01500000
C        1.15650000       3.30880000      -0.00850000
C        1.62500000       2.64890000      -1.24670000
C        3.13020000       2.57420000      -1.44810000
O        3.67420000       1.92870000      -0.28260000
C        2.69880000       1.33170000       0.46530000
O        2.94170000       0.56040000       1.34780000
H        0.35860000      -0.03390000       0.67890000
H        0.11400000       3.60370000       0.03160000
H        1.84680000       3.90070000       0.58360000
H        0.96290000       2.57280000      -2.10010000
H        3.38760000       1.97550000      -2.32800000
H        3.60260000       3.55670000      -1.53770000
