16
Properties=species:S:1:pos:R:3 gdb_27063=T pbc="F F F"
C        0.07190000       1.43320000      -0.12940000
C        0.00420000      -0.05480000      -0.08580000
C       -0.25840000      -0.97100000      -1.08050000
O       -0.56710000      -0.61760000      -2.38390000
C        0.26690000      -1.05770000      -3.36020000
O        0.05930000      -0.85100000      -4.51600000
C       -0.22720000      -2.28360000      -0.53680000
C        0.06340000      -2.13630000       0.79880000
N        0.19610000      -0.79560000       1.05740000
H        1.06020000       1.81270000       0.15760000
H       -0.13440000       1.77260000      -1.14660000
H       -0.66680000       1.90030000       0.53330000
H        1.13080000      -1.61220000      -2.95070000
H       -0.41150000      -3.20760000      -1.06130000
H        0.18170000      -2.86910000       1.58000000
H        0.40070000      -0.40140000       1.95920000
