21
Properties=species:S:1:pos:R:3 gdb_83810=T pbc="F F F"
C       -0.04100000       1.56760000      -0.17360000
C        0.01740000       0.06830000       0.00040000
C        1.31840000      -0.68600000      -0.13500000
O        2.47600000       0.07010000      -0.34630000
C        3.36810000       0.11710000       0.76220000
C        2.68090000       0.47110000       2.05660000
C        1.39750000       0.17000000       2.26710000
C        0.65140000       0.52430000       3.52260000
C        0.66560000      -0.59530000       1.21830000
H        0.85220000       2.04800000       0.22900000
H       -0.11080000       1.83030000      -1.23450000
H       -0.91690000       1.98730000       0.33300000
H       -0.85280000      -0.46320000      -0.37780000
H        1.32190000      -1.64000000      -0.66060000
H        3.90740000      -0.84140000       0.86170000
H        4.11380000       0.87560000       0.50220000
H        3.26990000       0.98670000       2.81080000
H        1.29280000       1.04430000       4.23940000
H       -0.20910000       1.16770000       3.30070000
H        0.25040000      -0.37350000       4.01030000
H        0.16130000      -1.48700000       1.58440000
