13
Properties=species:S:1:pos:R:3 gdb_11169=T pbc="F F F"
N       -0.11600000       1.26910000      -0.14800000
C       -0.00380000       0.03230000       0.02980000
O        1.14900000      -0.67600000       0.21570000
C        0.82390000      -2.02010000       0.56030000
C       -0.63310000      -2.15980000       0.06500000
O       -1.08060000      -0.79530000       0.06670000
C       -0.74820000      -2.75860000      -1.26090000
C       -0.83020000      -3.26840000      -2.34510000
H        0.79590000       1.71620000      -0.09410000
H        1.51520000      -2.69650000       0.05790000
H        0.89030000      -2.15210000       1.64600000
H       -1.25470000      -2.70490000       0.78020000
H       -0.91080000      -3.71260000      -3.30700000
