17
Properties=species:S:1:pos:R:3 gdb_4831=T pbc="F F F"
C       -0.25770000       1.52410000      -0.17650000
C        0.10510000       0.03700000      -0.01650000
C        0.90150000      -0.51110000      -1.14730000
C        2.15000000      -1.02410000      -1.27390000
C        2.32790000      -1.39130000      -2.65390000
C        1.15950000      -1.06050000      -3.27040000
N        0.72750000      -1.08050000      -4.59170000
O        0.28270000      -0.52740000      -2.38600000
H        0.64430000       2.14080000      -0.23530000
H       -0.83370000       1.68510000      -1.09210000
H       -0.85820000       1.87190000       0.67000000
H        0.68780000      -0.11040000       0.89890000
H       -0.81870000      -0.54530000       0.10670000
H        2.86750000      -1.14040000      -0.47580000
H        3.19610000      -1.83650000      -3.11250000
H        1.25730000      -1.72880000      -5.15820000
H       -0.26380000      -1.27210000      -4.67140000
