20
Properties=species:S:1:pos:R:3 gdb_59134=T pbc="F F F"
C        0.93350000      -0.32560000      -1.33970000
C        0.11390000       0.04460000      -0.10090000
C       -0.00750000       1.56320000       0.04960000
N       -1.23250000      -0.53450000      -0.22560000
C       -2.03360000      -0.61450000       1.03360000
C       -2.79980000      -1.86680000       0.52410000
O       -2.58940000      -2.65020000       1.73180000
C       -1.34090000      -1.91860000       1.58280000
C       -1.34010000      -2.00640000       0.00970000
H        1.93360000       0.11530000      -1.28670000
H        1.05270000      -1.40940000      -1.43510000
H        0.43800000       0.04130000      -2.24410000
H        0.63680000      -0.35070000       0.79070000
H       -0.53150000       1.98760000      -0.81260000
H       -0.56400000       1.83570000       0.95160000
H        0.98240000       2.02460000       0.11770000
H       -2.41740000       0.24860000       1.57750000
H       -3.74420000      -1.94350000      -0.01110000
H       -0.56360000      -2.08020000       2.32890000
H       -0.91400000      -2.76900000      -0.64220000
