16
Properties=species:S:1:pos:R:3 gdb_28275=T pbc="F F F"
C       -0.02060000       1.48530000       0.03380000
C       -0.00240000      -0.00520000      -0.03650000
N       -0.04480000      -0.70700000      -1.13990000
C       -0.00430000      -2.02920000      -0.71380000
C       -0.00800000      -3.32490000      -1.19320000
N        0.05760000      -4.13650000      -0.08340000
C        0.10350000      -3.41520000       1.10000000
C        0.06490000      -2.09840000       0.70810000
N        0.06380000      -0.77750000       1.11910000
H        0.88470000       1.87800000       0.51180000
H       -0.08050000       1.88350000      -0.97920000
H       -0.88070000       1.85200000       0.60640000
H       -0.04960000      -3.73760000      -2.18680000
H        0.07120000      -5.14010000      -0.12280000
H        0.15680000      -3.90930000       2.05440000
H        0.10530000      -0.42310000       2.05780000
