20
Properties=species:S:1:pos:R:3 gdb_22131=T pbc="F F F"
C       -0.24730000       1.67260000       0.25770000
O       -0.01410000       0.28430000       0.36030000
C       -1.08250000      -0.54960000      -0.03550000
C       -2.32450000      -0.39140000       0.83720000
C       -1.39470000      -0.55880000      -1.58340000
C       -1.15860000      -2.05130000      -1.54290000
C       -0.58580000      -2.02360000      -0.14370000
N       -1.46920000      -2.94480000      -2.38420000
O       -1.11760000      -4.22420000      -1.90900000
H        0.70430000       2.16780000       0.46560000
H       -0.57860000       1.96130000      -0.75100000
H       -0.99140000       2.03090000       0.98230000
H       -2.78170000       0.59620000       0.72360000
H       -3.07780000      -1.13550000       0.56120000
H       -2.06620000      -0.53680000       1.89100000
H       -2.38040000      -0.21850000      -1.91010000
H       -0.62220000      -0.02800000      -2.14950000
H        0.50700000      -2.07440000      -0.12750000
H       -0.99000000      -2.74780000       0.56740000
H       -1.41840000      -4.79420000      -2.62470000
