18
Properties=species:S:1:pos:R:3 gdb_71432=T pbc="F F F"
C        0.12480000       1.45330000      -0.28910000
C       -0.03280000      -0.02130000      -0.06810000
C       -1.30020000      -0.85280000       0.04880000
N       -0.48180000      -1.97690000       0.65540000
C        0.59660000      -0.91150000       0.96220000
C        1.06310000      -1.04270000      -0.46340000
C        0.36390000      -2.39450000      -0.54430000
C        1.27290000      -3.53760000      -0.16260000
O        1.59490000      -4.42230000      -0.91300000
H        1.16010000       1.77130000      -0.12810000
H       -0.15250000       1.73380000      -1.31140000
H       -0.50860000       2.02390000       0.39910000
H       -1.98470000      -0.46310000       0.80790000
H       -1.86350000      -1.12830000      -0.85030000
H        1.08210000      -0.75500000       1.91480000
H        1.99850000      -0.72270000      -0.90560000
H       -0.19990000      -2.66060000      -1.44370000
H        1.64710000      -3.49270000       0.88450000
