25
Properties=species:S:1:pos:R:3 gdb_121138=T pbc="F F F"
C        0.12600000       1.54740000       0.20470000
C        0.01430000       0.02320000       0.12170000
C       -1.42640000      -0.46260000      -0.08760000
C       -1.51770000      -1.97660000      -0.13610000
O       -1.13270000      -2.60150000       1.11310000
C       -2.25190000      -3.50500000       1.05330000
C       -2.88750000      -2.72960000      -0.12920000
C       -4.09530000      -1.89140000       0.29030000
C       -3.18990000      -3.54330000      -1.38390000
H        1.16310000       1.86320000       0.35570000
H       -0.23690000       2.02400000      -0.71320000
H       -0.46620000       1.94310000       1.03730000
H        0.64360000      -0.34840000      -0.69790000
H        0.40560000      -0.43100000       1.03880000
H       -2.06060000      -0.07890000       0.71970000
H       -1.82400000      -0.05640000      -1.02850000
H       -0.87430000      -2.34720000      -0.95180000
H       -1.93890000      -4.53000000       0.80840000
H       -2.81760000      -3.52130000       1.99310000
H       -3.90580000      -1.33940000       1.21520000
H       -4.37250000      -1.16910000      -0.48510000
H       -4.96230000      -2.53930000       0.46320000
H       -4.04290000      -4.21280000      -1.22420000
H       -3.44000000      -2.88860000      -2.22690000
H       -2.33240000      -4.15660000      -1.67900000
