23
Properties=species:S:1:pos:R:3 gdb_104450=T pbc="F F F"
C       -0.08560000       1.54310000       0.15370000
C        0.03720000       0.02460000      -0.02700000
C        0.71950000      -0.45410000      -1.32550000
C       -0.02620000       0.02660000      -2.58100000
C        2.19400000       0.00370000      -1.37250000
O        2.90280000      -0.62540000      -2.43340000
C        2.85170000      -2.02090000      -2.31640000
O        1.54260000      -2.51940000      -2.37480000
C        0.75640000      -1.99880000      -1.31070000
H        0.89210000       2.03550000       0.16540000
H       -0.68090000       2.00190000      -0.64090000
H       -0.57580000       1.77250000       1.10470000
H        0.58460000      -0.39000000       0.83020000
H       -0.96650000      -0.41980000       0.01440000
H        0.00870000       1.11580000      -2.67800000
H        0.42280000      -0.40470000      -3.47770000
H       -1.07920000      -0.27480000      -2.54720000
H        2.27870000       1.07900000      -1.54820000
H        2.68500000      -0.22680000      -0.41050000
H        3.39470000      -2.43700000      -3.16720000
H        3.32740000      -2.33370000      -1.36530000
H        1.16070000      -2.35120000      -0.34580000
H       -0.24700000      -2.41830000      -1.43200000
