17
Properties=species:S:1:pos:R:3 gdb_112349=T pbc="F F F"
C       -0.08090000       1.33340000       0.03510000
O        0.06120000      -0.07990000       0.00900000
C        0.65240000      -0.60810000       1.15580000
O       -0.16800000      -0.48850000       2.30760000
C       -0.44180000      -1.75580000       2.81710000
N       -1.13960000      -1.96110000       3.85230000
C        0.20630000      -2.74030000       1.96190000
C        0.83840000      -2.09730000       0.96560000
N        1.60020000      -2.52970000      -0.08460000
H        0.89080000       1.82660000       0.18410000
H       -0.48900000       1.62830000      -0.93330000
H       -0.76510000       1.64690000       0.83090000
H        1.59930000      -0.08100000       1.36330000
H       -1.47750000      -1.07760000       4.23510000
H        0.12620000      -3.80220000       2.13450000
H        1.52350000      -3.50640000      -0.32600000
H        1.58570000      -1.91730000      -0.88820000
