18
Properties=species:S:1:pos:R:3 gdb_37684=T pbc="F F F"
C       -0.02500000       1.52940000      -0.18700000
C        1.52720000       1.38640000       0.07790000
C        2.08720000       0.19720000      -0.80580000
C        2.12940000      -0.82950000       0.39540000
C        1.02820000      -1.69870000      -0.33930000
C       -0.40860000      -1.46440000       0.25240000
C        0.02880000       0.00100000       0.03220000
C        1.21780000       0.21460000       1.04120000
N        0.80590000      -0.46860000      -1.19060000
H       -0.48050000       2.09380000       0.63110000
H       -0.39350000       1.87620000      -1.15470000
H        2.16150000       2.24120000       0.30940000
H        2.84090000       0.31900000      -1.58300000
H        3.01890000      -1.22490000       0.88270000
H        1.29900000      -2.63480000      -0.83000000
H       -1.15310000      -1.83510000      -0.45560000
H       -0.64670000      -1.77010000       1.27300000
H        0.97280000       0.31210000       2.09710000
