18
Properties=species:S:1:pos:R:3 gdb_7359=T pbc="F F F"
C        0.01680000       1.41350000       0.10300000
C        0.04790000      -0.08820000      -0.05430000
O        1.07940000      -0.70190000      -0.23320000
C       -1.26920000      -0.86820000       0.01070000
O       -1.01670000      -2.23340000      -0.19150000
C       -2.00450000      -0.63560000       1.34120000
C       -3.30240000      -1.43060000       1.41590000
O       -3.92240000      -1.11780000       2.65460000
H        0.95900000       1.83850000      -0.24540000
H       -0.82350000       1.85550000      -0.44080000
H       -0.11390000       1.66800000       1.16100000
H       -1.90460000      -0.48140000      -0.80780000
H       -0.05280000      -2.29580000      -0.30210000
H       -1.35690000      -0.93350000       2.17380000
H       -2.23780000       0.42790000       1.46430000
H       -3.95040000      -1.15920000       0.56520000
H       -3.07590000      -2.50110000       1.33050000
H       -4.67960000      -1.69990000       2.76500000
