13
Properties=species:S:1:pos:R:3 gdb_27465=T pbc="F F F"
O        0.07270000       1.20050000       0.62460000
C       -0.06650000      -0.05420000       0.17770000
N       -1.23050000      -0.58920000       0.28290000
C       -1.46030000      -1.91760000      -0.04150000
N       -2.47430000      -2.39610000      -0.64140000
C       -0.45440000      -2.87040000       0.52070000
N        0.80220000      -2.80990000       0.28940000
C        1.36990000      -1.78940000      -0.43740000
N        1.08350000      -0.53260000      -0.43840000
H        0.96720000       1.48320000       0.39130000
H       -3.07890000      -1.63460000      -0.96180000
H       -0.82040000      -3.66480000       1.17300000
H        2.25250000      -2.09160000      -1.00000000
