19
Properties=species:S:1:pos:R:3 gdb_57807=T pbc="F F F"
C       -0.08510000       1.29750000      -0.57600000
C        0.00480000      -0.03970000       0.17340000
O        0.69740000       0.10030000       1.41330000
C       -1.31840000      -0.64680000       0.35380000
C       -2.41840000      -1.10700000       0.52590000
C       -3.73210000      -1.71230000       0.72180000
C       -3.86780000      -3.05990000       0.03220000
C       -5.16790000      -3.54960000      -0.43820000
O       -4.19620000      -3.03790000      -1.35350000
H        0.91690000       1.72000000      -0.68760000
H       -0.52970000       1.15990000      -1.56580000
H       -0.70700000       2.00650000      -0.01970000
H        0.63090000      -0.72600000      -0.40970000
H        0.11520000       0.58020000       2.01280000
H       -3.91800000      -1.84760000       1.79630000
H       -4.51960000      -1.04830000       0.34510000
H       -3.10330000      -3.78970000       0.30000000
H       -5.35510000      -4.62050000      -0.49970000
H       -6.05500000      -2.93090000      -0.30550000
