17
Properties=species:S:1:pos:R:3 gdb_18962=T pbc="F F F"
C        0.05280000       1.64090000       0.07290000
C        0.06100000       0.11420000       0.08910000
N        0.65320000      -0.41960000      -1.13980000
C       -0.25720000      -0.49870000      -2.32290000
C        0.50470000      -1.73150000      -2.88640000
O       -0.68830000      -2.53310000      -3.10810000
C       -0.98550000      -1.82260000      -1.87420000
C        0.49530000      -1.88880000      -1.33950000
H        1.06510000       2.02620000      -0.07720000
H       -0.57770000       2.02580000      -0.73580000
H       -0.33710000       2.03700000       1.01540000
H        0.67480000      -0.24220000       0.92570000
H       -0.96300000      -0.26320000       0.26440000
H       -0.65360000       0.36610000      -2.85550000
H        1.32960000      -1.78510000      -3.59410000
H       -1.94850000      -2.00840000      -1.39980000
H        0.97680000      -2.64410000      -0.71690000
