22
Properties=species:S:1:pos:R:3 gdb_59389=T pbc="F F F"
C        0.09180000       0.87800000       1.69000000
C       -0.52320000      -0.52950000       1.74690000
C       -1.27280000      -0.75470000       3.06800000
C       -1.44140000      -0.74020000       0.55480000
C       -0.93070000      -1.12730000      -0.80120000
C       -1.77450000      -2.12390000      -0.01210000
C       -1.13700000      -3.40130000       0.51590000
C       -3.13650000      -2.29760000      -0.45640000
N       -4.23080000      -2.44540000      -0.80330000
H        0.77560000       1.03830000       2.52950000
H        0.65010000       1.03250000       0.76160000
H       -0.68730000       1.64720000       1.74380000
H        0.29990000      -1.25250000       1.69010000
H       -2.10860000      -0.05230000       3.16560000
H       -1.68140000      -1.76760000       3.13110000
H       -0.60940000      -0.60260000       3.92530000
H       -2.28740000      -0.05620000       0.54450000
H       -1.36440000      -0.66960000      -1.68240000
H        0.12090000      -1.38110000      -0.89450000
H       -1.13710000      -4.17340000      -0.25930000
H       -0.10160000      -3.22890000       0.81620000
H       -1.68460000      -3.79160000       1.37880000
