10
Properties=species:S:1:pos:R:3 gdb_4212=T pbc="F F F"
F        0.00180000       0.02170000       0.00340000
C       -0.01630000       1.35200000       0.01070000
C       -1.21720000       2.04610000       0.03010000
N       -1.23780000       3.37940000       0.03750000
C       -0.05210000       3.99100000       0.02520000
N        1.14970000       3.41200000       0.00650000
C        1.16530000       2.07860000      -0.00080000
H       -2.16560000       1.51470000       0.03970000
H       -0.06690000       5.07730000       0.03130000
H        2.12780000       1.57330000      -0.01610000
