24
Properties=species:S:1:pos:R:3 gdb_12410=T pbc="F F F"
C       -0.04310000       1.55900000      -0.05220000
C        0.06360000       0.03070000      -0.01310000
C        0.66890000      -0.53090000      -1.31290000
C        0.70540000      -2.06560000      -1.31600000
C        1.43370000      -2.61250000      -0.08050000
C        0.83010000      -2.04500000       1.21320000
C        0.80740000      -0.50170000       1.24120000
C        2.21460000       0.08870000       1.43390000
H        0.93200000       2.03030000      -0.21460000
H       -0.70050000       1.88140000      -0.86700000
H       -0.45330000       1.95530000       0.88350000
H       -0.96140000      -0.36510000       0.05540000
H        0.09070000      -0.16660000      -2.17100000
H        1.68660000      -0.13900000      -1.44600000
H       -0.32490000      -2.44870000      -1.32420000
H        1.17930000      -2.43270000      -2.23370000
H        1.38560000      -3.70740000      -0.06480000
H        2.49920000      -2.35470000      -0.14060000
H       -0.20070000      -2.41310000       1.30930000
H        1.37620000      -2.42420000       2.08540000
H        0.21580000      -0.19840000       2.11640000
H        2.87680000      -0.11580000       0.58700000
H        2.18060000       1.17340000       1.56960000
H        2.68540000      -0.33790000       2.32610000
