18
Properties=species:S:1:pos:R:3 gdb_51789=T pbc="F F F"
N       -0.12670000       1.28530000       0.12320000
C       -0.07490000       0.03070000       0.01070000
O       -1.21740000      -0.69300000       0.03450000
C       -1.06630000      -2.09470000      -0.00780000
O       -0.59570000      -2.53330000       1.25480000
C       -1.15720000      -3.80980000       1.56170000
C       -2.46790000      -3.87800000       0.79880000
C       -3.36260000      -2.67490000       0.91640000
C       -2.39400000      -2.77890000      -0.23370000
H        0.81190000       1.67570000       0.06890000
H        0.82790000      -0.58010000      -0.11830000
H       -0.33860000      -2.35120000      -0.79600000
H       -0.48370000      -4.61880000       1.24080000
H       -1.26590000      -3.86320000       2.65000000
H       -2.88650000      -4.84960000       0.56670000
H       -4.41260000      -2.80920000       0.68470000
H       -3.15340000      -1.94250000       1.68850000
H       -2.74780000      -2.89890000      -1.24940000
