19
Properties=species:S:1:pos:R:3 gdb_99920=T pbc="F F F"
N        0.00660000       1.36650000      -0.27260000
C        0.10610000      -0.06350000      -0.05430000
C        0.85700000      -0.50820000       1.23320000
O        2.16730000       0.03630000       1.11310000
C        0.18430000       0.08320000       2.41400000
N       -0.33950000       0.55010000       3.33290000
C        0.86180000      -2.02990000       1.36310000
C        1.85860000      -2.84740000       0.58530000
C        1.96190000      -2.76010000       2.08730000
H       -0.55850000       1.79750000       0.45340000
H        0.93220000       1.77930000      -0.20720000
H       -0.89690000      -0.50140000      -0.03980000
H        0.65180000      -0.51820000      -0.88780000
H        2.59310000       0.02380000       1.97690000
H       -0.13680000      -2.44340000       1.46920000
H        1.52010000      -3.77330000       0.13510000
H        2.60230000      -2.30510000       0.01330000
H        2.78790000      -2.18560000       2.49280000
H        1.68750000      -3.62040000       2.68660000
