19
Properties=species:S:1:pos:R:3 gdb_77958=T pbc="F F F"
C       -0.11210000       1.53760000      -0.30570000
C        0.01280000       0.02580000      -0.28050000
C        0.84190000      -0.84720000      -1.25950000
C        2.10390000      -0.46310000      -0.44100000
C        2.85320000       0.86730000      -0.50820000
N        1.03250000      -0.68200000       0.66980000
C        0.69510000      -1.94370000      -0.16680000
C       -0.58800000      -2.58480000       0.08270000
N       -1.58550000      -3.14160000       0.26130000
H        0.75150000       2.07670000      -0.68490000
H       -0.97080000       1.80350000      -0.93160000
H       -0.32470000       1.89750000       0.70690000
H       -0.98760000      -0.37020000      -0.08320000
H        0.73170000      -0.97410000      -2.34220000
H        2.83960000      -1.27190000      -0.39210000
H        2.63080000       1.49480000       0.35780000
H        3.93030000       0.68110000      -0.50510000
H        2.62600000       1.43570000      -1.41330000
H        1.48500000      -2.69670000      -0.11790000
