13
Properties=species:S:1:pos:R:3 gdb_9594=T pbc="F F F"
C        0.14970000       1.48820000      -0.03470000
C        0.03490000      -0.01350000       0.08400000
O        1.21230000      -0.77780000      -0.13170000
C        0.67520000      -0.81170000       1.18280000
C        1.44410000      -0.13800000       2.28380000
O        2.31130000       0.67790000       2.11170000
C       -1.17400000      -0.59040000      -0.49030000
N       -2.14770000      -1.02050000      -0.93980000
H        1.07480000       1.82510000       0.43240000
H        0.15950000       1.76790000      -1.09190000
H       -0.70660000       1.97580000       0.43970000
H        0.19430000      -1.74910000       1.46340000
H        1.13130000      -0.45870000       3.30090000
