11
Properties=species:S:1:pos:R:3 gdb_2623=T pbc="F F F"
O        0.07410000      -0.16760000       0.09200000
C        0.04720000       0.99350000      -0.20390000
C        1.27400000       1.91080000      -0.10860000
C        1.32440000       2.89880000      -1.17000000
C        1.34300000       3.70350000      -2.07030000
C        1.34490000       4.66820000      -3.14220000
O        2.33820000       5.20380000      -3.57540000
H       -0.87870000       1.49860000      -0.55250000
H        1.20750000       2.42500000       0.86280000
H        2.17510000       1.29000000      -0.07750000
H        0.33940000       4.89030000      -3.55300000
