19
Properties=species:S:1:pos:R:3 gdb_41743=T pbc="F F F"
C       -0.00330000       1.41320000      -0.14790000
O        0.96080000       1.94690000       0.76180000
C        2.04200000       1.02490000       0.87260000
C        1.41800000      -0.33460000       0.66740000
C        2.12690000      -1.65180000       0.46220000
O        1.10630000      -2.64050000       0.57310000
C        0.11050000      -2.16910000       1.48290000
C        0.11600000      -0.65500000       1.36750000
C        0.09830000      -0.09740000      -0.03250000
H       -0.97510000       1.82890000       0.13860000
H        0.21310000       1.72320000      -1.18310000
H        2.81330000       1.21650000       0.10710000
H        2.49510000       1.17290000       1.85900000
H        2.58840000      -1.77080000      -0.52420000
H        2.90880000      -1.79420000       1.22770000
H       -0.83310000      -2.64560000       1.19650000
H        0.34620000      -2.46470000       2.51810000
H       -0.24610000      -0.05520000       2.19580000
H       -0.22520000      -0.71900000      -0.86080000
