20
Properties=species:S:1:pos:R:3 gdb_56504=T pbc="F F F"
C        0.08040000       1.57480000       0.00180000
C       -0.00980000       0.03680000       0.03250000
C        0.75230000      -0.48560000       1.17210000
N        1.35110000      -0.88450000       2.07720000
C       -1.47890000      -0.53530000       0.04040000
C       -1.42660000      -2.08020000      -0.00360000
C       -2.25480000      -0.07770000       1.29560000
C       -2.15720000      -0.05210000      -1.16650000
C       -2.71820000       0.32760000      -2.16000000
H        1.12090000       1.88910000      -0.10980000
H       -0.49580000       1.95780000      -0.84280000
H       -0.30630000       2.01560000       0.92330000
H        0.46850000      -0.35190000      -0.87460000
H       -0.93180000      -2.47100000       0.88980000
H       -2.43900000      -2.48900000      -0.04810000
H       -0.88180000      -2.42950000      -0.88550000
H       -2.37480000       1.00750000       1.32300000
H       -3.25250000      -0.52360000       1.29750000
H       -1.73130000      -0.39730000       2.20160000
H       -3.22090000       0.66060000      -3.03450000
