14
Properties=species:S:1:pos:R:3 gdb_44246=T pbc="F F F"
N       -0.05410000       1.25030000      -0.38580000
C       -0.01490000       0.04340000      -0.06670000
O        1.04740000      -0.77080000       0.29520000
C        0.14850000      -1.91430000       0.48080000
C       -1.05600000      -1.05200000       0.08170000
C       -1.91950000      -0.98000000       1.35100000
O       -1.13210000      -1.53560000       2.41960000
C       -0.03190000      -2.19910000       1.97290000
O        0.66510000      -2.86030000       2.68130000
H        0.86860000       1.68680000      -0.35900000
H        0.46710000      -2.77880000      -0.09840000
H       -1.61480000      -1.29520000      -0.81980000
H       -2.18900000       0.04310000       1.61980000
H       -2.83090000      -1.57770000       1.25330000
