16
Properties=species:S:1:pos:R:3 gdb_46697=T pbc="F F F"
O        0.11700000       0.13570000       0.46310000
C        0.03560000       1.25550000       0.02610000
C       -1.23750000       2.10120000       0.06070000
O       -0.91220000       3.30860000       0.76480000
C        0.06450000       4.05140000       0.09260000
C        1.56180000       3.95090000       0.35940000
C        1.98500000       2.53680000       0.75420000
N        1.17100000       1.99040000      -0.39140000
C        0.92240000       3.35580000      -0.89780000
H       -1.62800000       2.32130000      -0.94210000
H       -1.99790000       1.58200000       0.64290000
H       -0.26370000       5.05760000      -0.16060000
H        2.16970000       4.84160000       0.45180000
H        3.05020000       2.34830000       0.60050000
H        1.68100000       2.16470000       1.73650000
H        1.03420000       3.58400000      -1.95090000
