19
Properties=species:S:1:pos:R:3 gdb_95106=T pbc="F F F"
C       -0.50840000       1.44550000       0.38270000
N        0.09720000       0.15750000       0.03420000
C       -0.89570000      -0.83160000      -0.43650000
C       -1.29330000      -1.71440000       0.77870000
C       -0.05310000      -1.69120000       1.65210000
C        1.26900000      -1.89890000       0.96190000
C        0.76070000      -0.48300000       1.16480000
C        1.48020000       0.35650000       2.08100000
N        2.06500000       1.01440000       2.83210000
H        0.26500000       2.13470000       0.72860000
H       -0.95920000       1.87190000      -0.51690000
H       -1.28360000       1.38210000       1.16590000
H       -1.74820000      -0.31700000      -0.88330000
H       -0.44920000      -1.45060000      -1.22100000
H       -2.13760000      -1.28420000       1.32720000
H       -1.58060000      -2.72230000       0.46470000
H       -0.13390000      -1.91790000       2.70820000
H        2.10930000      -2.19400000       1.57890000
H        1.30050000      -2.28320000      -0.05130000
