15
Properties=species:S:1:pos:R:3 gdb_128024=T pbc="F F F"
C       -0.21400000       1.58950000      -0.05000000
N        0.00900000       0.15880000      -0.03440000
C       -1.00150000      -0.59050000       0.13190000
N       -0.91430000      -1.96130000       0.16340000
C        0.25310000      -2.68400000       0.02340000
C        1.55210000      -2.32380000      -0.17120000
O        2.27130000      -3.45580000      -0.23520000
N        1.38410000      -4.52650000      -0.07500000
N        0.21750000      -4.05660000       0.07360000
H        0.37730000       2.06680000       0.74030000
H        0.13070000       2.00930000      -1.00230000
H       -1.26920000       1.87520000       0.08990000
H       -2.02940000      -0.22950000       0.26510000
H       -1.75150000      -2.50280000       0.30050000
H        2.04970000      -1.37900000      -0.27190000
