17
Properties=species:S:1:pos:R:3 gdb_26698=T pbc="F F F"
C       -0.00010000       1.58980000       0.03430000
C        0.01600000       0.09470000       0.03720000
C        0.04570000      -0.74630000      -1.02890000
O        0.03490000      -0.46920000      -2.34790000
O        0.08040000      -2.04490000      -0.67900000
C        0.05580000      -2.06920000       0.73300000
N        0.10170000      -3.27900000       1.41450000
C        0.02550000      -0.78690000       1.18430000
N        0.08920000      -0.36890000       2.51840000
H        0.80570000       1.99910000       0.65500000
H        0.12810000       1.97400000      -0.98090000
H       -0.94320000       1.99930000       0.42070000
H        0.15600000      -1.29860000      -2.82400000
H       -0.66270000      -3.90620000       1.18480000
H        0.97550000      -3.78510000       1.30270000
H       -0.07040000      -1.14530000       3.14980000
H       -0.55690000       0.38240000       2.72730000
