18
Properties=species:S:1:pos:R:3 gdb_14976=T pbc="F F F"
C        0.02080000       1.38000000      -0.00930000
O        0.08240000      -0.03630000      -0.02020000
C        0.70570000      -0.58550000       1.08750000
C        0.55350000      -2.10170000       1.03840000
C        1.48390000      -2.74400000       2.03400000
C        2.48870000      -2.07010000       2.58780000
C        2.78310000      -0.64320000       2.21440000
O        2.08010000      -0.22460000       1.05920000
H        1.02020000       1.82610000      -0.04460000
H       -0.54350000       1.67810000      -0.89530000
H       -0.50070000       1.74750000       0.88750000
H        0.26010000      -0.18590000       2.02230000
H       -0.48810000      -2.37080000       1.24850000
H        0.76600000      -2.43790000       0.01570000
H        1.30010000      -3.78090000       2.30110000
H        3.13690000      -2.52590000       3.33130000
H        2.56320000       0.02440000       3.06880000
H        3.84730000      -0.51570000       1.98360000
