22
Properties=species:S:1:pos:R:3 gdb_40180=T pbc="F F F"
C       -0.01340000       1.45460000      -0.09440000
C        1.28790000       0.72660000      -0.02400000
C        2.16760000       0.86100000       1.22340000
C        1.78270000      -0.12880000       2.33690000
C        0.27770000      -0.16650000       2.51870000
C       -0.30790000      -0.58530000       3.83910000
C       -0.38490000       0.86120000       3.40930000
C       -0.41800000      -0.63710000       1.24940000
N        0.00830000       0.00090000       0.00150000
H       -0.29000000       2.03340000       0.78470000
H       -0.38310000       1.85430000      -1.03600000
H        1.83330000       0.57820000      -0.95370000
H        3.21440000       0.71050000       0.94180000
H        2.09710000       1.88310000       1.61300000
H        2.13190000      -1.13670000       2.07320000
H        2.28420000       0.14540000       3.27150000
H       -1.22410000      -1.16800000       3.83220000
H        0.37510000      -0.84400000       4.64190000
H        0.24510000       1.58010000       3.92380000
H       -1.35450000       1.25220000       3.11790000
H       -0.22110000      -1.71190000       1.13070000
H       -1.50500000      -0.52110000       1.33430000
