18
Properties=species:S:1:pos:R:3 gdb_64698=T pbc="F F F"
C       -0.13570000       1.70250000       0.24140000
C        0.01000000       0.20620000       0.05070000
C       -1.26910000      -0.50510000      -0.40710000
C       -1.69750000      -0.09710000      -1.74190000
C       -2.03180000       0.24490000      -2.84440000
N        1.28350000      -0.25380000      -0.48280000
C        0.93370000      -0.62390000       0.90710000
C        1.78590000      -0.03510000       1.97780000
O        1.86620000      -0.49480000       3.08970000
H        0.82880000       2.16970000       0.44380000
H       -0.54570000       2.15170000      -0.66830000
H       -0.81730000       1.92680000       1.06880000
H       -1.10990000      -1.59050000      -0.39000000
H       -2.07130000      -0.30210000       0.31440000
H       -2.33510000       0.54190000      -3.81790000
H        1.16650000      -1.05240000      -1.10200000
H        0.60740000      -1.63860000       1.12500000
H        2.35770000       0.86630000       1.67000000
