17
Properties=species:S:1:pos:R:3 gdb_97608=T pbc="F F F"
C       -0.15880000       1.82540000       0.09170000
C       -0.08840000       0.30470000      -0.03640000
O        0.53050000       0.02650000      -1.31840000
C        0.25310000      -1.16290000      -1.88690000
O        0.74300000      -1.51290000      -2.91760000
C        0.66410000      -0.32020000       1.04770000
C        1.28170000      -0.82450000       1.95090000
C        2.03750000      -1.48210000       3.01800000
O        1.61950000      -2.81310000       3.27450000
H        0.84720000       2.25020000       0.07690000
H       -0.73150000       2.23940000      -0.74150000
H       -0.64290000       2.09760000       1.03240000
H       -1.10750000      -0.10590000      -0.05160000
H       -0.47580000      -1.76200000      -1.30690000
H        3.11160000      -1.43190000       2.77960000
H        1.89820000      -0.93840000       3.95890000
H        1.69760000      -3.30730000       2.45160000
