12
Properties=species:S:1:pos:R:3 gdb_132417=T pbc="F F F"
F       -0.05600000       0.06540000       0.00390000
C       -0.02570000       1.38600000       0.01070000
N       -1.18390000       2.00460000       0.02950000
C       -1.12820000       3.34440000       0.03590000
C       -2.47420000       4.02300000       0.05760000
O       -2.63180000       5.21340000       0.06610000
N       -0.02950000       4.09620000       0.02530000
C        1.12800000       3.43060000       0.00620000
C        1.20020000       2.04290000      -0.00230000
H       -3.31340000       3.29770000       0.06500000
H        2.03500000       4.02980000      -0.00280000
H        2.13640000       1.50100000      -0.01770000
