17
Properties=species:S:1:pos:R:3 gdb_124824=T pbc="F F F"
C       -0.00940000       1.55650000       0.05560000
C        0.00230000       0.03610000      -0.09400000
O        0.91820000      -0.58000000       0.79660000
C       -1.41770000      -0.55650000       0.06530000
C       -1.42300000      -2.04220000      -0.01390000
N       -1.64460000      -2.90310000       0.93630000
C       -1.49110000      -4.09640000       0.27420000
N       -1.19880000      -4.00110000      -0.99250000
O       -1.15240000      -2.61450000      -1.19490000
H        1.00520000       1.94800000      -0.05170000
H       -0.64670000       2.02800000      -0.69940000
H       -0.38660000       1.84800000       1.04370000
H        0.37220000      -0.22900000      -1.09060000
H        0.62680000      -0.40750000       1.69930000
H       -1.83390000      -0.27770000       1.03840000
H       -2.07210000      -0.14340000      -0.71020000
H       -1.60200000      -5.05960000       0.75070000
