18
Properties=species:S:1:pos:R:3 gdb_22529=T pbc="F F F"
C        0.32900000       1.33600000      -0.73830000
C        0.03920000      -0.00040000      -0.07240000
C        1.19810000      -0.89030000       0.30090000
C        0.41550000      -0.18710000       1.38070000
C       -1.22990000      -0.65680000      -0.54600000
N       -2.42220000      -0.27170000      -0.23960000
O       -2.40750000       0.82180000       0.62090000
C       -1.14890000      -1.76970000      -1.43500000
C       -1.01260000      -2.70530000      -2.18070000
H        1.25480000       1.76430000      -0.34100000
H        0.45120000       1.21800000      -1.82050000
H       -0.48240000       2.04540000      -0.55740000
H        1.07180000      -1.96200000       0.19510000
H        2.19560000      -0.53360000       0.06700000
H        0.86800000       0.65810000       1.88860000
H       -0.24030000      -0.78240000       2.00530000
H       -3.34760000       0.98550000       0.75520000
H       -0.91270000      -3.52990000      -2.84250000
