13
Properties=species:S:1:pos:R:3 gdb_42637=T pbc="F F F"
O       -0.03460000       0.05210000       0.00280000
C       -0.04760000       1.24230000       0.07490000
C       -1.09760000       2.30530000       0.06030000
C       -0.38220000       3.53600000       0.62780000
O        0.89260000       3.13650000       1.13320000
C        1.05030000       2.35760000      -0.10010000
C        2.37750000       2.11890000      -0.55490000
C        3.48250000       1.88050000      -0.96260000
C       -0.11410000       3.19110000      -0.77880000
H       -2.16970000       2.21660000      -0.03950000
H       -0.90240000       4.36040000       1.09630000
H        4.46220000       1.66990000      -1.31560000
H       -0.24700000       3.63930000      -1.75150000
