19
Properties=species:S:1:pos:R:3 gdb_50408=T pbc="F F F"
O        0.09380000      -0.07740000       0.17760000
C        0.06660000       1.12270000       0.08080000
C        1.28360000       2.01640000      -0.02550000
C        1.09970000       3.04600000      -1.18400000
C        0.85430000       4.35750000      -0.47650000
C        1.02030000       4.25590000       0.84090000
C        1.40010000       2.88130000       1.25630000
C        1.07550000       2.33490000       2.63410000
C        2.49970000       2.65250000       2.27440000
H       -0.90090000       1.67880000       0.08000000
H        2.15560000       1.37400000      -0.16560000
H        1.99100000       3.08960000      -1.82200000
H        0.26890000       2.76870000      -1.84690000
H        0.59970000       5.26610000      -1.00950000
H        0.92410000       5.06510000       1.55700000
H        0.55740000       2.98840000       3.32820000
H        0.79240000       1.29020000       2.70960000
H        3.17990000       1.82500000       2.10110000
H        2.96350000       3.52710000       2.71880000
