25
Properties=species:S:1:pos:R:3 gdb_65473=T pbc="F F F"
C        0.65500000      -0.49610000      -1.02350000
C       -0.08140000      -0.09820000       0.24250000
C       -1.59200000      -0.31060000       0.23300000
C       -2.36750000       0.39830000      -0.87290000
C       -2.21710000       1.90750000      -0.92950000
C       -2.57550000      -0.33410000      -2.18010000
C       -3.72520000      -0.17100000      -1.21510000
C        0.62530000      -0.34470000       1.55570000
C        0.47020000       1.06480000       1.03730000
H        1.73510000      -0.36110000      -0.90650000
H        0.47750000      -1.55010000      -1.26920000
H        0.33590000       0.10140000      -1.88360000
H       -1.79480000      -1.38850000       0.16270000
H       -1.99350000       0.01000000       1.20460000
H       -1.18380000       2.20520000      -1.13500000
H       -2.84920000       2.33430000      -1.71490000
H       -2.51150000       2.36990000       0.02050000
H       -2.59080000       0.24600000      -3.09710000
H       -2.14310000      -1.32270000      -2.29140000
H       -4.06530000      -1.04870000      -0.67470000
H       -4.51840000       0.52180000      -1.47630000
H        0.02860000      -0.64110000       2.41260000
H        1.61230000      -0.79460000       1.52780000
H        1.35270000       1.57170000       0.66070000
H       -0.22940000       1.71860000       1.54710000
