14
Properties=species:S:1:pos:R:3 gdb_14498=T pbc="F F F"
N        0.00500000       1.51040000      -0.05670000
C       -0.00350000       0.06390000      -0.01380000
C        0.94330000      -0.56660000      -0.94520000
N        1.72130000      -0.94270000      -1.71390000
C       -0.11220000      -0.64770000       1.37750000
C       -1.55350000      -0.11510000       1.53990000
C       -1.37760000      -0.67780000       0.11170000
O       -0.64890000      -1.83130000       0.67650000
H        0.93560000       1.86000000       0.15480000
H       -0.21420000       1.83260000      -0.99550000
H        0.67740000      -0.80630000       2.11130000
H       -2.18300000      -0.72800000       2.18370000
H       -1.69630000       0.95710000       1.65710000
H       -2.10680000      -0.87270000      -0.67400000
