17
Properties=species:S:1:pos:R:3 gdb_88939=T pbc="F F F"
O       -0.86740000       1.39820000      -0.14210000
C       -0.32690000       0.11590000       0.00090000
C       -0.21200000      -0.48700000       1.37950000
C       -1.28050000      -0.96700000       0.41710000
C       -2.72850000      -0.62800000       0.67030000
C       -3.60880000      -0.85340000      -0.53700000
O       -3.25760000      -1.36800000      -1.57340000
C       -5.07400000      -0.40660000      -0.42150000
O       -5.54410000       0.09590000       0.56480000
H       -0.21870000       2.03390000       0.17650000
H        0.43280000      -0.14240000      -0.73560000
H        0.62450000      -1.13990000       1.60370000
H       -0.53890000       0.13490000       2.20710000
H       -1.12130000      -1.93360000      -0.04880000
H       -3.14970000      -1.22210000       1.49410000
H       -2.84560000       0.41540000       0.98080000
H       -5.65430000      -0.60230000      -1.34850000
