20
Properties=species:S:1:pos:R:3 gdb_121543=T pbc="F F F"
C        0.24670000       1.31290000       0.11410000
O       -0.10070000      -0.02860000      -0.13350000
C        0.67730000      -0.61920000      -1.14790000
C        0.19270000      -2.06300000      -1.32130000
C        0.93200000      -2.78270000      -2.34980000
C        1.56180000      -3.35110000      -3.20690000
C        2.28480000      -4.05830000      -4.22610000
C        3.77930000      -4.04430000      -4.22780000
N        3.06360000      -5.27510000      -3.88070000
H        1.29450000       1.41030000       0.43990000
H        0.10620000       1.94280000      -0.77860000
H       -0.40600000       1.67830000       0.91040000
H        0.57210000      -0.06900000      -2.09710000
H        1.74690000      -0.60910000      -0.88130000
H        0.28140000      -2.57740000      -0.35660000
H       -0.87690000      -2.04450000      -1.56300000
H        1.77930000      -4.14060000      -5.18500000
H        4.30730000      -4.07200000      -5.17680000
H        4.27190000      -3.47950000      -3.44190000
H        3.05280000      -5.38970000      -2.86980000
