14
Properties=species:S:1:pos:R:3 gdb_42330=T pbc="F F F"
O       -0.01150000      -0.06370000      -0.09000000
C       -0.05130000       1.15020000      -0.04740000
C        1.18700000       1.92250000      -0.01840000
C        2.22370000       2.54610000       0.00500000
C        3.39040000       3.25350000       0.03160000
N        4.38040000       3.86070000       0.05440000
C       -1.30400000       1.94020000      -0.02140000
C       -2.49580000       1.36940000      -0.78650000
C       -2.49800000       1.31710000       0.69800000
H       -1.19170000       3.01670000       0.01660000
H       -3.13230000       2.08550000      -1.29250000
H       -2.30570000       0.44590000      -1.32110000
H       -2.30940000       0.35830000       1.16690000
H       -3.13610000       1.99580000       1.25120000
