13
Properties=species:S:1:pos:R:3 gdb_4685=T pbc="F F F"
C       -0.00140000       1.47660000       0.05790000
C       -0.00360000      -0.01210000      -0.02650000
N       -0.06150000      -0.72300000      -1.14050000
C       -0.03900000      -2.03190000      -0.75820000
C        0.03380000      -2.13360000       0.61560000
N        0.05570000      -0.82180000       1.06540000
C        0.08140000      -3.24350000       1.48180000
N        0.12100000      -4.15030000       2.20330000
H        0.91020000       1.85270000       0.53510000
H       -0.05740000       1.88190000      -0.95260000
H       -0.85660000       1.84980000       0.63190000
H       -0.07550000      -2.84060000      -1.47150000
H        0.10650000      -0.53720000       2.03030000
