14
Properties=species:S:1:pos:R:3 gdb_377=T pbc="F F F"
C        0.03500000       1.39920000       0.04520000
O       -0.08060000      -0.00330000      -0.03950000
C        0.62460000      -0.57970000      -1.13360000
C        2.12910000      -0.71390000      -0.84600000
C        0.02460000      -1.88450000      -1.41590000
C       -0.43660000      -2.96510000      -1.66480000
H        1.05990000       1.73100000       0.26690000
H       -0.29350000       1.89100000      -0.88400000
H       -0.61560000       1.72080000       0.86180000
H        0.49000000       0.05960000      -2.02330000
H        2.63710000      -1.17700000      -1.69610000
H        2.57840000       0.26750000      -0.67110000
H        2.28270000      -1.33730000       0.03810000
H       -0.85730000      -3.91580000      -1.88190000
