16
Properties=species:S:1:pos:R:3 gdb_11556=T pbc="F F F"
O        0.16420000       1.19010000       0.49780000
C       -0.05990000      -0.17630000       0.34050000
C       -1.44010000      -0.45920000      -0.22350000
O       -2.20770000       0.45960000      -0.41750000
C       -1.80650000      -1.90260000      -0.53170000
C       -3.19900000      -2.24540000      -0.04960000
C       -3.58260000      -3.62170000       0.27870000
O       -3.30090000      -2.67210000       1.30960000
H       -0.67730000       1.61240000       0.26120000
H        0.68990000      -0.63180000      -0.32820000
H        0.01720000      -0.72090000       1.29900000
H       -1.75990000      -2.01420000      -1.62380000
H       -1.07640000      -2.59240000      -0.09730000
H       -3.97030000      -1.54230000      -0.35990000
H       -4.62410000      -3.92780000       0.19410000
H       -2.85330000      -4.42390000       0.17080000
