14
Properties=species:S:1:pos:R:3 gdb_125453=T pbc="F F F"
C       -0.09540000       1.50990000      -0.01310000
C       -0.05430000       0.02570000       0.03680000
N       -1.01920000      -0.81500000      -0.19430000
C       -0.39060000      -2.02420000       0.00260000
N       -1.12780000      -3.18120000      -0.16040000
C       -0.69520000      -4.48430000      -0.01250000
O        0.41780000      -4.82340000       0.28870000
N        0.87570000      -1.96120000       0.33340000
O        1.09840000      -0.56590000       0.35500000
H        0.62100000       1.88810000      -0.74820000
H       -1.09930000       1.83510000      -0.28480000
H        0.17340000       1.93320000       0.95920000
H       -2.09080000      -3.02250000      -0.41740000
H       -1.52530000      -5.18960000      -0.21170000
