19
Properties=species:S:1:pos:R:3 gdb_48750=T pbc="F F F"
O       -0.05260000       0.02600000       0.19940000
C        0.05280000       1.18500000      -0.12040000
C        1.28860000       1.99250000       0.01140000
C        1.07310000       3.48600000       0.16840000
C        1.54150000       2.96160000      -1.16060000
C        2.95460000       3.12800000      -1.58090000
C        3.98590000       2.73970000      -0.82900000
C        3.80430000       2.07610000       0.51150000
C        2.48950000       1.27820000       0.60230000
H       -0.81000000       1.74140000      -0.55950000
H        0.04960000       3.83910000       0.24760000
H        1.78540000       4.03200000       0.77580000
H        0.80480000       2.96080000      -1.95850000
H        3.12290000       3.60010000      -2.54460000
H        5.00070000       2.91090000      -1.17630000
H        4.64460000       1.40400000       0.71700000
H        3.84130000       2.83410000       1.30710000
H        2.28460000       1.00720000       1.64300000
H        2.60160000       0.33290000       0.06060000
