16
Properties=species:S:1:pos:R:3 gdb_19598=T pbc="F F F"
O        0.08530000       1.45250000      -0.04140000
C        0.11210000       0.05510000      -0.09270000
C        0.17930000      -0.63210000       1.29970000
O       -1.25070000      -0.25630000       1.43950000
C       -1.28840000      -0.61250000      -0.00180000
C       -1.05190000      -2.12680000       0.03810000
C        0.29930000      -2.67950000      -0.34500000
C        0.08880000      -2.14200000       1.04950000
H       -0.53840000       1.67050000       0.66520000
H        0.80980000      -0.21510000      -0.88360000
H        0.80810000      -0.25920000       2.10790000
H       -2.16040000      -0.21960000      -0.52430000
H       -1.90660000      -2.78720000       0.11830000
H        0.34960000      -3.76190000      -0.41800000
H        0.94000000      -2.17940000      -1.06000000
H        0.10140000      -2.81400000       1.89890000
