18
Properties=species:S:1:pos:R:3 gdb_52807=T pbc="F F F"
C        0.05560000       1.48920000      -0.13320000
C        0.03180000       0.03620000      -0.05620000
C        0.00200000      -1.16510000       0.02340000
C        0.00760000      -2.60970000       0.06090000
C        1.06370000      -3.26060000      -0.81820000
N       -0.31300000      -3.21810000       1.36000000
C       -1.28660000      -3.37250000       0.26210000
C       -2.58100000      -2.65680000       0.44560000
O       -3.60490000      -2.98740000      -0.09840000
H        0.87430000       1.83850000      -0.77170000
H       -0.88000000       1.88060000      -0.54720000
H        0.19360000       1.93440000       0.85810000
H        2.06380000      -2.95600000      -0.49390000
H        0.99600000      -4.35190000      -0.76640000
H        0.94110000      -2.95580000      -1.86120000
H        0.21070000      -4.08290000       1.47680000
H       -1.36850000      -4.32430000      -0.25730000
H       -2.52280000      -1.78550000       1.13020000
