17
Properties=species:S:1:pos:R:3 gdb_47988=T pbc="F F F"
O       -0.15360000       0.09130000       0.51790000
C       -0.00870000       1.16840000      -0.01710000
C        1.21580000       1.91730000      -0.03490000
C        2.23680000       2.56810000      -0.06410000
C        3.44440000       3.32720000      -0.09250000
C        3.88100000       4.15650000      -1.29600000
C        2.66800000       4.74440000      -2.02470000
C        2.24930000       5.46090000      -0.69650000
C        3.47550000       4.85000000      -0.00950000
H       -0.84730000       1.66440000      -0.54860000
H        4.28220000       2.86330000       0.42150000
H        4.86750000       3.99710000      -1.71470000
H        2.95400000       5.45360000      -2.80350000
H        1.96260000       4.02170000      -2.44260000
H        2.31470000       6.54750000      -0.77540000
H        1.27850000       5.19230000      -0.27240000
H        4.09180000       5.32360000       0.74530000
