13
Properties=species:S:1:pos:R:3 gdb_133145=T pbc="F F F"
C        0.02440000       1.50270000       0.03540000
C       -0.02710000       0.00580000       0.04100000
C       -1.16770000      -0.70380000      -0.15950000
F       -2.33180000      -0.11350000      -0.37740000
C       -1.16720000      -2.15410000      -0.14490000
O       -2.09850000      -2.91160000      -0.30690000
N        0.13950000      -2.61020000       0.09750000
N        1.26020000      -1.89810000       0.29450000
N        1.18550000      -0.62990000       0.26820000
H        0.71900000       1.84830000      -0.73640000
H       -0.95990000       1.93330000      -0.14800000
H        0.40390000       1.86570000       0.99560000
H        0.27440000      -3.61380000       0.13220000
