23
Properties=species:S:1:pos:R:3 gdb_58204=T pbc="F F F"
C        0.05820000       1.50570000       0.55000000
C       -0.02390000      -0.00880000       0.35650000
O        0.45710000      -0.68070000       1.52350000
C       -1.43070000      -0.52090000      -0.02700000
C       -2.01530000       0.20600000      -1.24500000
C       -1.40260000      -2.07000000      -0.20440000
C       -2.80760000      -2.70350000      -0.17030000
C       -0.68070000      -2.46790000      -1.41310000
C       -0.09920000      -2.79780000      -2.41330000
H        1.05160000       1.76950000       0.92270000
H       -0.11290000       2.04990000      -0.38220000
H       -0.68460000       1.85120000       1.28130000
H        0.67500000      -0.30770000      -0.43410000
H       -0.06300000      -0.36810000       2.27250000
H       -2.08480000      -0.32790000       0.83800000
H       -2.98470000      -0.21400000      -1.52780000
H       -2.17010000       1.26830000      -1.04030000
H       -1.35170000       0.11480000      -2.11040000
H       -0.84030000      -2.45450000       0.65440000
H       -3.41990000      -2.37850000      -1.01580000
H       -2.73570000      -3.79340000      -0.21410000
H       -3.32430000      -2.43070000       0.75560000
H        0.42300000      -3.09850000      -3.28760000
