19
Properties=species:S:1:pos:R:3 gdb_116050=T pbc="F F F"
O       -0.07120000       1.44710000       0.07590000
C        0.00490000       0.04100000       0.12060000
C       -1.37730000      -0.60180000      -0.00750000
O       -1.91510000      -0.09550000      -1.23750000
C       -3.32000000      -0.01400000      -1.30670000
C       -4.07720000      -1.30370000      -1.17870000
C       -3.63020000      -2.51840000      -0.82750000
C       -2.29770000      -2.91330000      -0.38030000
C       -1.30290000      -2.10420000       0.00440000
H       -0.60740000       1.64520000      -0.70190000
H        0.65310000      -0.35950000      -0.67660000
H        0.44830000      -0.23460000       1.08310000
H       -2.00610000      -0.24280000       0.82340000
H       -3.71220000       0.70990000      -0.56900000
H       -3.52830000       0.41770000      -2.29500000
H       -5.13030000      -1.20550000      -1.43850000
H       -4.35510000      -3.32910000      -0.85470000
H       -2.12960000      -3.98630000      -0.32530000
H       -0.36400000      -2.54260000       0.33490000
