15
Properties=species:S:1:pos:R:3 gdb_61720=T pbc="F F F"
N       -0.56540000      -0.12420000      -1.20340000
C       -0.68150000      -0.70920000       0.01850000
N        0.45640000      -1.40720000       0.47060000
C        1.60720000      -1.69940000      -0.20420000
O        1.87650000      -1.36540000      -1.34120000
N       -1.65980000      -0.68650000       0.85100000
C       -2.83050000       0.09880000       0.51370000
C       -3.53600000      -0.34240000      -0.70580000
N       -4.03450000      -0.68970000      -1.69000000
H        0.25110000      -0.38390000      -1.74680000
H       -1.41540000       0.07490000      -1.70710000
H        0.34340000      -1.75860000       1.41060000
H        2.29920000      -2.29330000       0.41830000
H       -3.53800000       0.04180000       1.34660000
H       -2.58930000       1.16550000       0.37620000
