16
Properties=species:S:1:pos:R:3 gdb_78415=T pbc="F F F"
O       -0.01520000       1.28760000      -0.07580000
C       -0.02840000      -0.10840000      -0.03600000
C       -0.47010000      -0.71460000       1.27980000
C       -1.40660000      -0.66620000       0.05010000
C       -1.42040000      -2.21790000      -0.00490000
C       -0.49220000      -2.24690000       1.21980000
O        0.56100000      -2.88960000       0.41550000
C       -0.26670000      -2.91810000      -0.70400000
N       -0.06760000      -3.40000000      -1.84330000
H        0.80460000       1.58830000       0.33020000
H        0.73520000      -0.59530000      -0.64030000
H       -0.48610000      -0.11460000       2.18100000
H       -2.26810000      -0.03650000      -0.12660000
H       -2.39770000      -2.69370000      -0.02830000
H       -0.69240000      -2.80150000       2.13500000
H        0.86130000      -3.82020000      -1.91360000
