16
Properties=species:S:1:pos:R:3 gdb_105584=T pbc="F F F"
O        0.05390000       1.37740000       0.19110000
C        0.01540000       0.00650000      -0.11180000
C       -1.43670000      -0.52290000      -0.11890000
C       -1.60300000      -2.07470000       0.05640000
N       -2.14540000      -1.80250000       1.39280000
C       -1.99450000      -0.44770000       1.34280000
O       -2.13370000       0.44410000       2.13960000
C       -2.26150000       0.08410000      -1.14080000
C       -2.95190000       0.57040000      -1.99600000
H       -0.45890000       1.51260000       1.00020000
H        0.46840000      -0.11910000      -1.10010000
H        0.59610000      -0.59560000       0.60770000
H       -2.31330000      -2.53630000      -0.63200000
H       -0.66060000      -2.63160000       0.06210000
H       -2.34810000      -2.41350000       2.17070000
H       -3.55780000       1.01660000      -2.74560000
