15
Properties=species:S:1:pos:R:3 gdb_18550=T pbc="F F F"
O       -0.00910000      -0.01430000      -0.08760000
C        0.00550000       1.18380000      -0.02630000
N       -0.98440000       2.13060000       0.08820000
C       -0.10790000       3.30610000       0.05980000
C        0.04260000       4.07910000       1.38630000
C        1.20910000       3.39600000       2.06420000
C        1.78930000       2.47040000       1.29810000
C        1.09600000       2.30500000      -0.02310000
H       -1.98290000       2.03740000       0.20700000
H       -0.27750000       3.94800000      -0.80810000
H        0.24460000       5.14350000       1.21050000
H       -0.87730000       4.03280000       1.98330000
H        1.52080000       3.64950000       3.07170000
H        2.63800000       1.86090000       1.58430000
H        1.73890000       2.31950000      -0.90550000
