17
Properties=species:S:1:pos:R:3 gdb_63114=T pbc="F F F"
C        0.00590000       1.55420000      -0.01400000
C        0.01160000       0.04030000      -0.07420000
N       -1.12760000      -0.67510000       0.44340000
C        0.64110000      -0.75010000      -1.20870000
C        1.93700000      -0.10470000      -1.67820000
O        2.43930000      -0.01980000      -0.31240000
C        1.29910000      -0.73340000       0.16760000
C        1.47650000      -1.73130000       1.17260000
N        1.63140000      -2.52000000       2.00480000
H        0.97370000       1.98120000      -0.28350000
H       -0.75880000       1.96260000      -0.68420000
H       -0.22900000       1.88300000       1.00420000
H       -1.30730000      -0.41940000       1.40950000
H       -1.96210000      -0.45580000      -0.09190000
H        0.11310000      -1.56270000      -1.68710000
H        2.56680000      -0.77620000      -2.27000000
H        1.87810000       0.87640000      -2.16010000
