21
Properties=species:S:1:pos:R:3 gdb_121745=T pbc="F F F"
C        0.13860000       1.39180000       0.00750000
C       -0.04020000      -0.12890000       0.00120000
C       -1.50700000      -0.52590000       0.01310000
O       -1.57650000      -1.96520000       0.00610000
C       -2.81740000      -2.49290000       0.01500000
O       -3.83290000      -1.85370000       0.02800000
C       -2.70850000      -4.01000000       0.00590000
O       -3.98760000      -4.56730000       0.01520000
C       -3.96500000      -5.97560000       0.00680000
H        1.19870000       1.66000000      -0.00110000
H       -0.32840000       1.85250000      -0.86960000
H       -0.31170000       1.84320000       0.89820000
H        0.43800000      -0.56280000      -0.88450000
H        0.45470000      -0.57210000       0.87300000
H       -2.02380000      -0.14850000       0.90220000
H       -2.04060000      -0.13910000      -0.86200000
H       -2.12990000      -4.31010000      -0.88470000
H       -2.11300000      -4.31950000       0.88200000
H       -3.46670000      -6.37190000      -0.89230000
H       -3.44960000      -6.38220000       0.89150000
H       -5.00310000      -6.31430000       0.01480000
