21
Properties=species:S:1:pos:R:3 gdb_78283=T pbc="F F F"
C       -0.06650000       1.54760000       0.02940000
C       -0.07640000       0.04090000       0.05690000
C        1.12930000      -0.79130000      -0.31010000
C        0.54730000      -0.95190000       1.07440000
C        1.34290000      -0.69590000       2.32830000
C       -0.69540000      -1.81230000       1.00410000
C       -1.92970000      -1.02490000       1.33720000
O       -2.02700000      -0.05560000       2.34270000
C       -1.32310000      -0.81320000      -0.01980000
H        0.89470000       1.95070000       0.36580000
H       -0.23660000       1.92120000      -0.98760000
H       -0.85510000       1.96910000       0.66240000
H        1.04340000      -1.59300000      -1.03970000
H        2.07060000      -0.24880000      -0.35770000
H        2.02400000       0.15340000       2.20730000
H        0.69230000      -0.49340000       3.18620000
H        1.95510000      -1.56800000       2.58780000
H       -0.69550000      -2.89720000       0.95590000
H       -2.84630000      -1.60850000       1.32970000
H       -1.21200000       0.45540000       2.34280000
H       -1.85520000      -1.05110000      -0.93600000
