17
Properties=species:S:1:pos:R:3 gdb_37948=T pbc="F F F"
C       -0.03720000       1.56620000      -0.14490000
O        1.13240000       2.30640000       0.21460000
C        1.89900000       1.96410000       1.27540000
N        2.08860000       0.86560000       1.86190000
C        1.54190000      -0.39940000       1.49140000
C        1.22630000      -0.84860000       0.01950000
N        0.42250000      -1.96330000       0.66660000
C        0.01220000      -0.68990000       1.38820000
C       -0.04120000       0.05550000       0.02360000
H       -0.88830000       1.98970000       0.40810000
H       -0.18750000       1.80520000      -1.20190000
H        2.45040000       2.84640000       1.60150000
H        2.05620000      -1.18720000       2.04220000
H        1.93050000      -1.04320000      -0.79120000
H       -0.33050000      -2.23940000       0.02910000
H       -0.72330000      -0.69250000       2.19500000
H       -0.84320000      -0.32810000      -0.62180000
