20
Properties=species:S:1:pos:R:3 gdb_53389=T pbc="F F F"
C        0.16620000       1.44470000      -0.51120000
C        0.09670000       0.01380000      -0.25000000
C        0.05220000      -1.17040000      -0.02750000
C       -0.02990000      -2.59150000       0.23810000
C       -0.02930000      -3.11600000       1.71660000
C       -1.11680000      -4.15760000       1.32670000
C       -1.38260000      -3.32720000       0.07010000
C       -2.64540000      -2.70460000      -0.37080000
N       -2.00900000      -3.78860000      -1.15620000
H        1.07060000       1.88370000      -0.07530000
H        0.18450000       1.65390000      -1.58670000
H       -0.69490000       1.97240000      -0.08610000
H        0.73940000      -3.12800000      -0.33280000
H        0.92220000      -3.49360000       2.09400000
H       -0.41150000      -2.35510000       2.39950000
H       -0.69150000      -5.13570000       1.08230000
H       -1.94940000      -4.29720000       2.01920000
H       -3.58410000      -2.97930000       0.10360000
H       -2.59870000      -1.68730000      -0.75060000
H       -1.53070000      -3.39400000      -1.96380000
