18
Properties=species:S:1:pos:R:3 gdb_18287=T pbc="F F F"
C       -0.05830000       1.56890000      -0.09370000
C        0.01570000       0.06510000       0.02480000
C        1.32100000      -0.67460000      -0.14330000
O        2.47150000       0.10110000      -0.33110000
C        3.37730000       0.11970000       0.76590000
C        2.70200000       0.40550000       2.08340000
C        1.42430000       0.07940000       2.27320000
C        0.67150000      -0.63960000       1.21540000
H        0.83750000       2.04340000       0.30980000
H       -0.15090000       1.86850000      -1.14310000
H       -0.92740000       1.96120000       0.44520000
H       -0.85160000      -0.46060000      -0.36770000
H        1.33160000      -1.60620000      -0.70720000
H        3.93630000      -0.83080000       0.82370000
H        4.10540000       0.90200000       0.52730000
H        3.29360000       0.88360000       2.85860000
H        0.91970000       0.29940000       3.21010000
H        0.17360000      -1.54680000       1.54870000
