19
Properties=species:S:1:pos:R:3 gdb_77707=T pbc="F F F"
O        0.54040000       0.80140000      -0.52500000
C        0.09080000      -0.47170000      -0.12350000
C        0.18970000      -0.83870000       1.37430000
C        1.38750000      -1.21540000       2.14430000
N        0.72610000       0.09060000       2.36820000
C       -1.25830000      -1.34650000       1.39530000
C       -1.42240000      -0.73520000      -0.00610000
C       -2.47850000       0.17270000      -0.51000000
N       -2.33930000      -1.20000000      -1.03600000
H       -0.00510000       1.45610000      -0.07340000
H        0.60180000      -1.18890000      -0.77590000
H        1.30470000      -1.91370000       2.97310000
H        2.34510000      -1.23210000       1.62870000
H        1.25370000       0.81260000       1.87650000
H       -1.34510000      -2.43680000       1.39440000
H       -1.88770000      -0.93240000       2.18610000
H       -3.37150000       0.34830000       0.08400000
H       -2.17830000       1.00370000      -1.14480000
H       -1.88570000      -1.17640000      -1.94720000
