19
Properties=species:S:1:pos:R:3 gdb_68440=T pbc="F F F"
C       -0.04380000       1.51210000       0.08100000
C        0.02640000       0.00360000       0.05730000
C        0.95150000      -0.80080000      -0.91960000
C        0.63110000      -1.92890000       0.08490000
C        0.67090000      -0.86080000       1.19840000
O       -0.78170000      -2.14680000      -0.11190000
C       -1.28750000      -0.81220000      -0.15560000
C       -2.34230000      -0.54120000       0.89950000
O       -2.49680000      -1.17720000       1.90860000
H        0.95680000       1.94340000       0.18410000
H       -0.48220000       1.90560000      -0.84340000
H       -0.64770000       1.87590000       0.91950000
H        0.62540000      -0.93770000      -1.95400000
H        1.98720000      -0.45720000      -0.87640000
H        1.14340000      -2.88760000       0.12650000
H        1.67920000      -0.52100000       1.44210000
H        0.08640000      -1.06030000       2.09750000
H       -1.73100000      -0.59510000      -1.13990000
H       -2.98050000       0.34490000       0.66970000
