19
Properties=species:S:1:pos:R:3 gdb_40704=T pbc="F F F"
C       -0.16460000       1.38600000      -0.14650000
O        1.07580000       0.67890000      -0.13830000
C       -0.14070000      -0.07840000      -0.04180000
C       -0.38350000      -0.77040000       1.25680000
C       -1.52590000      -1.75320000       1.39290000
C       -0.10700000      -2.25210000       1.42820000
C        0.43430000      -3.08430000       0.30640000
C       -0.23110000      -4.31850000      -0.13610000
O       -0.31540000      -3.12020000      -0.91180000
H       -0.36870000       1.98330000       0.74220000
H       -0.43100000       1.85980000      -1.09070000
H       -0.37370000      -0.65760000      -0.93360000
H       -0.16690000      -0.15140000       2.12290000
H       -2.10600000      -1.74970000       2.30850000
H       -2.08990000      -1.97430000       0.49290000
H        0.29380000      -2.53820000       2.39750000
H        1.51170000      -3.01140000       0.15110000
H        0.35160000      -5.12110000      -0.58490000
H       -1.15770000      -4.62240000       0.34800000
