17
Properties=species:S:1:pos:R:3 gdb_63612=T pbc="F F F"
C        0.27480000       1.44410000      -0.49830000
C       -0.01460000       0.03220000      -0.04420000
C       -1.24670000      -0.61550000      -0.64010000
O        1.12280000      -0.82430000       0.06360000
C        0.46950000      -0.47770000       1.27590000
C        1.21640000       0.39460000       2.24510000
O        2.20700000       1.03240000       1.96130000
C        0.62760000       0.43350000       3.57450000
C        0.13060000       0.45090000       4.67080000
H        1.18260000       1.82850000      -0.03390000
H        0.40810000       1.45470000      -1.58550000
H       -0.56480000       2.10520000      -0.25940000
H       -1.17070000      -0.62810000      -1.73280000
H       -1.35690000      -1.64500000      -0.29200000
H       -2.14780000      -0.05360000      -0.37390000
H       -0.10540000      -1.27630000       1.74600000
H       -0.29560000       0.48140000       5.64440000
