13
Properties=species:S:1:pos:R:3 gdb_21627=T pbc="F F F"
N       -0.15560000       1.25060000      -0.10030000
C       -0.08500000      -0.10090000      -0.04610000
N       -1.04950000      -0.96110000      -0.23930000
C       -0.40260000      -2.15090000       0.00180000
C       -1.14320000      -3.45200000      -0.09350000
O       -1.95550000      -3.49480000      -1.24810000
N        0.85960000      -2.05950000       0.31170000
O        1.08440000      -0.64970000       0.29000000
H        0.71100000       1.75240000      -0.20700000
H       -0.95410000       1.62840000      -0.58340000
H       -0.43100000      -4.27850000      -0.15000000
H       -1.73810000      -3.58270000       0.82530000
H       -2.41370000      -2.64690000      -1.29410000
