17
Properties=species:S:1:pos:R:3 gdb_82658=T pbc="F F F"
C       -0.08780000       1.60410000      -0.05810000
C        0.04120000       0.09340000       0.01590000
C        1.17920000      -0.63910000      -0.74340000
O        2.36320000       0.04240000      -0.27710000
C        2.26090000      -0.32150000       1.11180000
C        0.70040000      -0.60010000       1.22690000
C        1.08490000      -1.83360000       0.28070000
C        2.41700000      -1.85390000       1.01270000
O        3.12010000      -2.68870000       1.49840000
H        0.88610000       2.08370000       0.06350000
H       -0.50230000       1.91500000      -1.02340000
H       -0.75730000       1.97680000       0.72440000
H       -0.91140000      -0.40510000      -0.19230000
H        1.21190000      -0.77240000      -1.82300000
H        2.83870000       0.33420000       1.75710000
H        0.26230000      -0.71090000       2.21610000
H        0.45000000      -2.69110000       0.08080000
