23
Properties=species:S:1:pos:R:3 gdb_117766=T pbc="F F F"
C        0.02680000       1.66380000      -0.02460000
C        0.05220000       0.13440000       0.07250000
C        0.64080000      -0.50380000      -1.19190000
C        0.69430000      -2.05910000      -1.22250000
C        1.46100000      -2.64350000      -0.01700000
C       -0.73570000      -2.66900000      -1.25620000
O       -1.49810000      -2.23860000      -2.36280000
C        1.35910000      -2.46420000      -2.46780000
C        1.85580000      -2.80130000      -3.51130000
H        1.03580000       2.06860000      -0.16150000
H       -0.58000000       1.99530000      -0.87420000
H       -0.39250000       2.11250000       0.88110000
H        0.63480000      -0.15910000       0.95360000
H       -0.96850000      -0.22900000       0.23940000
H        0.05710000      -0.18000000      -2.05990000
H        1.66020000      -0.12790000      -1.34170000
H        0.92540000      -2.44630000       0.91590000
H        1.57770000      -3.72590000      -0.12050000
H        2.45880000      -2.20240000       0.06000000
H       -0.64750000      -3.76590000      -1.22730000
H       -1.28590000      -2.35790000      -0.36340000
H       -1.00400000      -2.48340000      -3.15520000
H        2.32210000      -3.09490000      -4.41940000
