18
Properties=species:S:1:pos:R:3 gdb_28762=T pbc="F F F"
C       -0.04440000       1.54700000      -0.01620000
C        0.07310000       0.05950000      -0.01870000
C        0.12690000      -0.84420000      -1.06760000
C        0.24360000      -2.18070000      -0.55530000
C        0.16730000      -2.05160000       0.80970000
C        0.70170000      -2.37610000       2.18900000
C        1.94830000      -1.52570000       2.40710000
C        0.58760000      -0.88090000       2.47000000
N        0.01650000      -0.71200000       1.12280000
H        0.76900000       2.02280000       0.54610000
H       -0.00460000       1.92760000      -1.03970000
H       -0.98680000       1.88520000       0.43160000
H        0.03640000      -0.57510000      -2.11130000
H        0.35070000      -3.08380000      -1.13610000
H        0.43320000      -3.19880000       2.83700000
H        2.45080000      -1.65000000       3.36380000
H        2.60500000      -1.31450000       1.56920000
H        0.18320000      -0.35980000       3.32770000
