19
Properties=species:S:1:pos:R:3 gdb_110150=T pbc="F F F"
C       -0.09630000       1.59390000       0.23050000
C       -0.18740000       0.06880000       0.35570000
C        0.96420000      -0.52150000       1.16330000
C        1.08710000      -2.08510000       1.32360000
C        2.61960000      -1.99410000       0.99780000
C        2.37110000      -0.54980000       0.54220000
O        2.98790000       0.22180000      -0.13510000
C        0.69630000      -2.66110000       2.59220000
C        0.37960000      -3.11960000       3.65800000
H        0.84670000       1.88720000      -0.23820000
H       -0.91940000       1.98590000      -0.37430000
H       -0.14680000       2.07270000       1.21460000
H       -1.13360000      -0.21750000       0.83140000
H       -0.19260000      -0.38440000      -0.64400000
H        1.02220000      -0.05010000       2.15300000
H        0.55860000      -2.58090000       0.50260000
H        3.23920000      -2.03380000       1.89850000
H        3.02430000      -2.68480000       0.25520000
H        0.09800000      -3.53160000       4.59530000
