21
Properties=species:S:1:pos:R:3 gdb_119892=T pbc="F F F"
C        0.01640000       1.45700000      -0.06180000
O       -0.02130000       0.05260000       0.00280000
C        0.62310000      -0.56390000      -1.08330000
C        0.56620000      -2.06140000      -0.97300000
C        0.01450000      -2.69840000       0.05800000
C       -0.05850000      -4.19750000       0.13380000
O        0.29940000      -4.84930000      -1.07090000
C        1.44930000      -4.28290000      -1.67100000
C        1.18610000      -2.84050000      -2.10960000
H        1.04970000       1.83950000      -0.05700000
H       -0.48500000       1.83880000      -0.96550000
H       -0.50530000       1.83910000       0.81890000
H        0.16170000      -0.24680000      -2.03870000
H        1.67980000      -0.23780000      -1.14010000
H       -0.40530000      -2.13860000       0.88690000
H        0.57210000      -4.55920000       0.96840000
H       -1.08350000      -4.51850000       0.35660000
H        2.30110000      -4.30720000      -0.97070000
H        1.69600000      -4.92090000      -2.52440000
H        0.52470000      -2.82980000      -2.98690000
H        2.12910000      -2.37480000      -2.42810000
