17
Properties=species:S:1:pos:R:3 gdb_32699=T pbc="F F F"
C       -0.25260000       1.48140000       0.16070000
C        0.03550000      -0.02050000       0.05710000
N        0.72460000      -0.51330000       1.23870000
C        0.08410000      -1.14020000       2.12450000
N        0.57480000      -1.65550000       3.30770000
C       -0.42540000      -2.44920000       3.92000000
C       -1.52960000      -2.27150000       3.19340000
O       -2.79710000      -2.66290000       3.37550000
O       -1.27990000      -1.46210000       2.10550000
H        0.67090000       2.03550000       0.35210000
H       -0.69730000       1.85630000      -0.76740000
H       -0.94670000       1.68860000       0.98150000
H       -0.90220000      -0.56090000      -0.13680000
H        0.68930000      -0.19680000      -0.80600000
H        1.56110000      -1.83480000       3.38840000
H       -0.27230000      -2.97840000       4.84210000
H       -3.24430000      -2.64970000       2.52040000
