20
Properties=species:S:1:pos:R:3 gdb_59392=T pbc="F F F"
C        0.09310000       1.39690000      -0.27140000
C        0.05130000      -0.08130000       0.14240000
C        0.69730000      -0.30240000       1.51750000
C       -1.38200000      -0.58720000       0.13460000
C       -2.04750000      -1.06080000      -1.13090000
C       -1.66940000      -2.06360000      -0.04960000
O       -0.55910000      -2.88810000      -0.24630000
C       -2.73350000      -2.66530000       0.72620000
N       -3.58390000      -3.16380000       1.33190000
H        1.12510000       1.76030000      -0.30440000
H       -0.35210000       1.54970000      -1.25960000
H       -0.45570000       2.02130000       0.44330000
H        0.61460000      -0.66470000      -0.59410000
H        0.15150000       0.23760000       2.30030000
H        0.70630000      -1.36380000       1.77970000
H        1.73040000       0.05970000       1.52440000
H       -2.03430000      -0.09210000       0.85010000
H       -3.09730000      -0.84930000      -1.29700000
H       -1.43500000      -1.11250000      -2.02540000
H       -0.81710000      -3.61310000      -0.82720000
