16
Properties=species:S:1:pos:R:3 gdb_71865=T pbc="F F F"
C       -0.05600000       1.52360000       0.00130000
C       -0.01060000       0.03100000      -0.07450000
C        0.81910000      -0.82030000      -1.05020000
C       -0.10970000      -2.01610000      -0.69360000
O        0.47530000      -2.74340000       0.39280000
C        0.51990000      -1.88170000       1.45770000
O        1.13540000      -2.09180000       2.45430000
N       -0.30710000      -0.73420000       1.19290000
C       -1.07730000      -1.01100000      -0.02170000
H        0.89640000       1.92040000       0.36870000
H       -0.24110000       1.95230000      -0.98920000
H       -0.84500000       1.85020000       0.68250000
H        0.66050000      -0.47720000      -2.07620000
H        1.88800000      -0.95990000      -0.86350000
H       -0.43230000      -2.71270000      -1.46200000
H       -2.15960000      -0.97030000      -0.00540000
