18
Properties=species:S:1:pos:R:3 gdb_91604=T pbc="F F F"
C       -0.15490000       1.53960000      -0.06180000
C        0.03100000       0.03620000       0.02650000
O        0.83600000      -0.44180000      -1.09080000
C        1.86250000      -1.20780000      -0.51930000
C        1.21190000      -1.89880000       0.68070000
C        0.81070000      -0.51830000       1.25260000
C        2.16920000       0.15120000       1.24230000
N        2.63290000       0.97920000       2.07120000
O        2.81470000      -0.31830000       0.11690000
H        0.79900000       2.06550000       0.02060000
H       -0.61660000       1.80070000      -1.01790000
H       -0.81100000       1.88610000       0.74320000
H       -0.94650000      -0.46220000      -0.02580000
H        2.38140000      -1.77630000      -1.28720000
H        0.36550000      -2.52940000       0.40230000
H        1.91890000      -2.45130000       1.30100000
H        0.28690000      -0.46350000       2.20290000
H        3.57610000       1.26610000       1.80070000
