18
Properties=species:S:1:pos:R:3 gdb_20209=T pbc="F F F"
C       -0.01160000       1.57890000      -0.11750000
C        1.48060000       1.98960000      -0.03880000
C        2.14790000       0.86830000       0.77750000
O        1.89900000       1.05340000       2.17680000
C        0.69640000       0.38450000       2.55120000
C        0.33170000      -0.54180000       1.40440000
C        0.00040000       0.05670000       0.04740000
C        1.40500000      -0.41010000       0.36210000
H       -0.60400000       2.06940000       0.66330000
H       -0.46020000       1.86150000      -1.07370000
H        1.91330000       2.00180000      -1.04620000
H        1.64740000       2.97040000       0.41390000
H        3.23170000       0.82540000       0.64380000
H        0.88380000      -0.18440000       3.47050000
H       -0.09300000       1.11950000       2.76950000
H       -0.09290000      -1.51010000       1.64420000
H       -0.64020000      -0.53900000      -0.59370000
H        1.90480000      -1.24630000      -0.10930000
