19
Properties=species:S:1:pos:R:3 gdb_62129=T pbc="F F F"
O       -0.47710000       0.97650000      -0.33680000
C       -0.01460000      -0.34630000      -0.10720000
C        0.97030000      -0.77370000      -1.19980000
O        0.33570000      -0.81260000      -2.47710000
C        0.36160000       0.30760000      -3.22640000
O       -0.22240000       0.40380000      -4.26220000
C        0.58280000      -0.54930000       1.27710000
C        1.39270000       0.52670000       1.96340000
C        0.01680000       0.17090000       2.46930000
H        0.27010000       1.57840000      -0.24350000
H       -0.91060000      -0.97040000      -0.20650000
H        1.83400000      -0.09320000      -1.21760000
H        1.34090000      -1.78530000      -1.01430000
H        0.99850000       1.10060000      -2.79030000
H        0.91790000      -1.56910000       1.44840000
H        2.25920000       0.22220000       2.53920000
H        1.51330000       1.49260000       1.48190000
H       -0.77690000       0.88350000       2.27610000
H       -0.06960000      -0.36860000       3.40540000
