14
Properties=species:S:1:pos:R:3 gdb_64577=T pbc="F F F"
O       -0.09170000       1.47480000       0.10020000
C       -0.06910000       0.10170000       0.01590000
C        0.90040000      -0.49030000       1.01860000
O        1.58760000       0.22190000       1.70960000
C       -1.40780000      -0.67050000       0.00010000
N       -2.11730000      -0.24680000      -1.20400000
C       -1.09580000      -1.34680000      -1.31120000
C        0.21570000      -0.61400000      -1.39950000
O        1.16500000      -0.64000000      -2.11780000
H        0.58620000       1.71200000       0.75550000
H        0.95170000      -1.59450000       1.07870000
H       -1.92560000      -1.09060000       0.85300000
H       -3.02720000      -0.70880000      -1.20550000
H       -1.36380000      -2.32690000      -1.68160000
