15
Properties=species:S:1:pos:R:3 gdb_32039=T pbc="F F F"
C        0.04380000       1.42550000       0.00800000
O        0.01310000      -0.00040000       0.00480000
C       -1.16060000      -0.63910000       0.01180000
C       -1.20820000      -2.01340000       0.00850000
C       -2.49430000      -2.58630000       0.01660000
N       -3.64230000      -1.94730000       0.02680000
C       -3.62940000      -0.57520000       0.03030000
O       -4.59070000       0.16090000       0.03940000
N       -2.32560000       0.04100000       0.02230000
H        1.09930000       1.69550000       0.00070000
H       -0.43880000       1.83760000      -0.88560000
H       -0.42510000       1.83330000       0.91080000
H       -0.30120000      -2.59780000       0.00020000
H       -2.56430000      -3.67440000       0.01420000
H       -2.35810000       1.04950000       0.02530000
