16
Properties=species:S:1:pos:R:3 gdb_123472=T pbc="F F F"
C        0.11280000       1.34220000       0.60190000
C       -0.02660000      -0.06600000       0.07550000
C       -1.32530000      -0.58310000      -0.36920000
O       -0.33520000      -0.17650000      -1.31600000
N        1.38630000       1.93630000       0.22780000
C        1.88020000       2.20320000      -1.00080000
N        3.08370000       2.73870000      -0.90760000
C        3.28510000       2.77630000       0.43780000
N        2.29100000       2.30270000       1.17180000
H       -0.70630000       1.95930000       0.21850000
H        0.08090000       1.35570000       1.69320000
H        0.72900000      -0.76990000       0.42450000
H       -1.52020000      -1.65280000      -0.32520000
H       -2.20740000       0.05340000      -0.31220000
H        1.33500000       1.98300000      -1.90590000
H        4.18600000       3.16360000       0.88980000
