21
Properties=species:S:1:pos:R:3 gdb_108926=T pbc="F F F"
C       -0.37290000       1.47610000      -0.02160000
C        0.13010000       0.02310000       0.04050000
C        0.85070000      -0.41710000      -1.20010000
C        2.11270000      -0.85220000      -1.28630000
C        2.47030000      -1.29310000      -2.66970000
O        3.72690000      -0.98310000      -3.19470000
C        1.69850000      -2.48550000      -3.19220000
C        1.21550000      -1.07640000      -3.48470000
C        0.17020000      -0.45650000      -2.56400000
H        0.45910000       2.17090000      -0.17300000
H       -1.08240000       1.62060000      -0.84230000
H       -0.88060000       1.75090000       0.90810000
H        0.79280000      -0.09840000       0.90480000
H       -0.73060000      -0.63820000       0.21680000
H        2.80910000      -0.92270000      -0.45680000
H        4.33690000      -1.68220000      -2.93690000
H        2.13390000      -3.01120000      -4.03650000
H        1.15260000      -3.10720000      -2.48900000
H        1.29790000      -0.73410000      -4.50890000
H       -0.75770000      -1.04380000      -2.53150000
H       -0.11570000       0.54920000      -2.89860000
