19
Properties=species:S:1:pos:R:3 gdb_106750=T pbc="F F F"
C        0.16640000       1.44180000       0.20900000
N       -0.18590000       0.05740000      -0.10960000
C        0.50270000      -0.46840000      -1.22930000
C        1.99900000      -0.89450000      -1.28530000
C        0.91570000      -1.86530000      -1.62600000
C        0.64940000      -3.22870000      -1.08610000
O        0.52390000      -1.60930000      -3.01410000
C        0.04790000      -0.34970000      -2.65200000
N       -0.57470000       0.50880000      -3.31810000
H        1.23660000       1.58940000       0.42990000
H       -0.09630000       2.07560000      -0.64230000
H       -0.41890000       1.77080000       1.07180000
H       -0.06560000      -0.54130000       0.69920000
H        2.66880000      -0.53740000      -2.06160000
H        2.44290000      -1.00800000      -0.29940000
H        0.88570000      -3.26830000      -0.01860000
H       -0.39970000      -3.50520000      -1.22480000
H        1.27320000      -3.97140000      -1.59480000
H       -0.72810000       0.19410000      -4.27770000
