17
Properties=species:S:1:pos:R:3 gdb_42072=T pbc="F F F"
C       -0.00710000       1.40580000       0.01080000
O        1.29980000       1.92240000      -0.09530000
C        2.07070000       1.70610000       1.03330000
N        3.04470000       0.92140000       1.11780000
C        3.42070000       0.06120000      -0.00300000
C        2.55730000      -1.23540000      -0.06920000
N        1.59460000      -1.20520000      -1.16910000
C        0.49680000      -0.61140000      -1.05220000
O        0.02410000      -0.00060000       0.09600000
H       -0.50980000       1.74930000       0.92190000
H       -0.53800000       1.74950000      -0.88410000
H        1.76830000       2.31350000       1.88980000
H        3.35380000       0.57740000      -0.96640000
H        4.46350000      -0.22310000       0.15740000
H        3.21890000      -2.08480000      -0.25610000
H        2.07620000      -1.38720000       0.90280000
H       -0.19860000      -0.55470000      -1.89310000
