15
Properties=species:S:1:pos:R:3 gdb_42856=T pbc="F F F"
O       -0.15640000      -0.01000000      -0.01310000
C       -0.09300000       1.17230000       0.03250000
C       -0.96920000       2.44570000      -0.00190000
N       -0.03320000       2.93080000       1.10340000
C        0.92390000       2.33820000       0.07300000
C        0.05480000       2.97690000      -1.06270000
C        0.09400000       2.42960000      -2.49670000
C       -0.98930000       2.97540000      -3.31220000
N       -1.85310000       3.42600000      -3.93330000
H       -2.04750000       2.58130000       0.03860000
H        0.02660000       3.95220000       1.03170000
H        2.00450000       2.34890000       0.20120000
H        0.11210000       4.06960000      -1.04780000
H        1.05020000       2.68790000      -2.96610000
H        0.02370000       1.33590000      -2.50010000
