14
Properties=species:S:1:pos:R:3 gdb_67541=T pbc="F F F"
N       -0.02030000       1.49450000       0.12390000
C        0.04600000       0.08450000      -0.03630000
C        1.22950000      -0.63630000       0.68570000
O        0.97370000      -2.03620000       0.67960000
C        1.53130000      -1.45880000      -0.50070000
C        0.36200000      -0.80270000      -1.29170000
O       -0.91180000      -1.48060000      -1.14830000
C       -1.27340000      -0.72870000      -0.04330000
O       -2.29790000      -0.76180000       0.55070000
H        0.87710000       1.94100000      -0.03210000
H       -0.70410000       1.92240000      -0.49050000
H        1.85210000      -0.22740000       1.47400000
H        2.46090000      -1.87150000      -0.87360000
H        0.54160000      -0.42640000      -2.29670000
