15
Properties=species:S:1:pos:R:3 gdb_46277=T pbc="F F F"
O       -0.11050000       0.08690000      -0.35930000
C       -0.03290000       1.23170000      -0.05790000
O       -1.03480000       2.04370000       0.43080000
C       -0.12360000       3.17880000       0.56500000
C        1.02460000       2.33680000      -0.01310000
C        2.41020000       2.20200000       0.70190000
C        3.07590000       2.66680000      -0.60360000
O        2.68640000       1.73980000      -1.61990000
C        1.77530000       2.78140000      -1.28330000
H       -0.46230000       4.02360000      -0.04030000
H       -0.02180000       3.47440000       1.61190000
H        2.50960000       2.91280000       1.52610000
H        2.68860000       1.20000000       1.03380000
H        4.00370000       3.20620000      -0.74830000
H        1.41970000       3.42600000      -2.07900000
