17
Properties=species:S:1:pos:R:3 gdb_131521=T pbc="F F F"
O       -0.31590000       1.51090000      -0.21280000
C        0.05490000       0.15020000       0.01540000
C       -1.17220000      -0.80860000       0.20010000
C       -1.41100000      -1.55880000      -1.14890000
C       -0.07220000      -1.41090000      -1.81170000
N        0.49980000      -1.94860000      -2.87890000
N        1.71520000      -1.34400000      -2.90400000
C        1.91490000      -0.45490000      -1.89280000
C        0.75270000      -0.47910000      -1.15280000
H       -0.64310000       1.57160000      -1.11700000
H        0.65420000       0.18670000       0.92970000
H       -0.93030000      -1.54020000       0.97770000
H       -2.04140000      -0.24120000       0.54080000
H       -1.70710000      -2.60000000      -0.99520000
H       -2.20410000      -1.09070000      -1.74430000
H        2.36520000      -1.59890000      -3.62860000
H        2.84170000       0.08890000      -1.79910000
