17
Properties=species:S:1:pos:R:3 gdb_74184=T pbc="F F F"
C        0.04660000       1.46890000       0.05410000
C        0.01980000      -0.02990000       0.00060000
C        0.08800000      -0.72240000      -1.14730000
C       -0.03400000      -2.18530000      -1.23760000
O        0.01160000      -2.79800000      -2.27290000
O       -0.25970000      -2.88140000      -0.07820000
C       -0.19650000      -2.26080000       1.17790000
C        1.07700000      -1.67420000       1.69190000
C       -0.08220000      -0.75990000       1.28150000
H        0.88070000       1.81960000       0.67390000
H        0.14010000       1.90790000      -0.94150000
H       -0.87040000       1.85340000       0.51790000
H        0.19100000      -0.22990000      -2.10710000
H       -0.84190000      -2.78600000       1.87230000
H        1.29340000      -1.77620000       2.74940000
H        1.94030000      -1.68500000       1.03610000
H       -0.61930000      -0.25700000       2.07970000
