17
Properties=species:S:1:pos:R:3 gdb_64737=T pbc="F F F"
C        0.04110000       1.56250000      -0.09570000
C       -0.01430000       0.03820000      -0.03620000
C       -1.44140000      -0.50180000       0.20860000
C       -2.06090000      -0.00610000       1.43080000
C       -2.57580000       0.40840000       2.43380000
C        0.75590000      -0.71950000      -1.14330000
O        1.68740000      -1.25550000      -0.15220000
C        1.05330000      -0.59790000       0.87500000
O        1.34300000      -0.60010000       2.02640000
H        1.06040000       1.91440000      -0.27970000
H       -0.60210000       1.93900000      -0.89860000
H       -0.30520000       1.98920000       0.84830000
H       -2.06200000      -0.22520000      -0.65460000
H       -1.41590000      -1.59860000       0.23040000
H       -3.02330000       0.76380000       3.32890000
H        0.21820000      -1.52750000      -1.64550000
H        1.28070000      -0.09720000      -1.87130000
