16
Properties=species:S:1:pos:R:3 gdb_18969=T pbc="F F F"
O       -0.04390000       1.46410000      -0.29480000
C        0.05610000       0.10090000       0.09410000
C       -1.33940000      -0.48720000       0.05950000
C       -1.98020000      -0.78780000      -1.31500000
C       -1.22790000      -2.15210000      -1.45790000
O       -2.43110000      -2.92880000      -1.73070000
C       -2.83440000      -1.95250000      -0.72620000
C       -1.49830000      -2.02510000       0.07750000
H        0.83110000       1.85930000      -0.23940000
H        0.72060000      -0.45920000      -0.58430000
H        0.47320000       0.00570000       1.11000000
H       -1.99060000       0.05420000       0.75440000
H       -2.26350000      -0.10880000      -2.11780000
H       -0.31650000      -2.40640000      -1.99740000
H       -3.86390000      -1.95520000      -0.36940000
H       -1.24100000      -2.75150000       0.84890000
