19
Properties=species:S:1:pos:R:3 gdb_1084=T pbc="F F F"
C       -0.06100000       1.55270000       0.06110000
C       -0.00310000       0.01630000       0.03900000
C        0.70530000      -0.50040000       1.30210000
C       -1.42960000      -0.55520000      -0.02560000
C        0.75990000      -0.46650000      -1.23080000
C        2.14110000      -0.00900000      -1.32650000
C        3.27950000       0.37200000      -1.39900000
H        0.94370000       1.98460000       0.07700000
H       -0.58110000       1.94160000      -0.82160000
H       -0.59830000       1.90600000       0.94750000
H        0.17700000      -0.17110000       2.20310000
H        0.73920000      -1.59570000       1.31660000
H        1.73350000      -0.13150000       1.35600000
H       -1.95850000      -0.20650000      -0.91970000
H       -1.41950000      -1.65080000      -0.04680000
H       -2.01200000      -0.24460000       0.84810000
H        0.74440000      -1.56430000      -1.25660000
H        0.21050000      -0.13330000      -2.12140000
H        4.28540000       0.70390000      -1.47100000
