17
Properties=species:S:1:pos:R:3 gdb_127872=T pbc="F F F"
C       -0.13450000       1.40240000       0.01340000
N       -0.10420000      -0.04990000      -0.04310000
C        0.57310000      -0.63410000      -0.96550000
C        1.35860000       0.02100000      -2.02170000
N        2.04240000      -0.54540000      -2.95290000
O        2.05060000      -1.92910000      -2.97890000
C        1.35430000      -2.62310000      -2.04440000
C        0.62450000      -2.08670000      -1.05120000
C       -0.11860000      -2.92150000      -0.05500000
H        0.86300000       1.84220000       0.16030000
H       -0.56450000       1.85330000      -0.89320000
H       -0.75560000       1.71000000       0.85820000
H        1.40420000       1.10430000      -2.07140000
H        1.47090000      -3.68770000      -2.21360000
H        0.01570000      -3.98940000      -0.24620000
H        0.21960000      -2.69340000       0.96090000
H       -1.18700000      -2.68400000      -0.08030000
