21
Properties=species:S:1:pos:R:3 gdb_70344=T pbc="F F F"
C        0.01120000       1.47170000      -0.06850000
C       -0.05000000      -0.03790000       0.03240000
C       -0.32060000      -0.67130000       1.38490000
C        1.04540000      -0.79100000       0.73930000
O        1.49190000      -2.00320000       0.18110000
C        0.94970000      -2.30370000      -1.10110000
C        0.86630000      -1.04990000      -2.01780000
C       -0.46740000      -0.74630000      -1.25860000
C       -0.60120000      -2.28490000      -1.07890000
H        0.60410000       1.79040000      -0.93390000
H       -0.99360000       1.89690000      -0.17960000
H        0.46140000       1.91500000       0.82510000
H       -0.40360000      -0.00300000       2.23640000
H       -0.93850000      -1.55700000       1.45790000
H        1.86870000      -0.24720000       1.19400000
H        1.47890000      -3.19380000      -1.44400000
H        1.67600000      -0.31910000      -1.95230000
H        0.70430000      -1.33750000      -3.05940000
H       -1.27120000      -0.21500000      -1.77440000
H       -1.01110000      -2.74380000      -1.98260000
H       -1.11130000      -2.69570000      -0.20660000
