17
Properties=species:S:1:pos:R:3 gdb_42461=T pbc="F F F"
O        0.02960000      -0.17840000      -0.00410000
C        0.00810000       1.02600000       0.00210000
C        1.27780000       1.86650000      -0.00270000
C        2.55340000       1.00880000      -0.01760000
C        3.76320000       1.82100000      -0.02190000
C        4.74520000       2.51420000      -0.02510000
C       -1.30170000       1.83650000       0.01540000
C       -2.51120000       1.03320000       0.02170000
C       -3.51490000       0.37480000       0.02700000
H        1.25500000       2.53750000      -0.87080000
H        1.26840000       2.52690000       0.87370000
H        2.54820000       0.34040000       0.85030000
H        2.53500000       0.35100000      -0.89340000
H        5.62380000       3.11020000      -0.02820000
H       -1.27250000       2.50220000       0.88940000
H       -1.28590000       2.50860000      -0.85400000
H       -4.39810000      -0.21450000       0.03160000
