17
Properties=species:S:1:pos:R:3 gdb_29873=T pbc="F F F"
C        0.04190000       1.49170000       0.00140000
N        0.00260000       0.03610000       0.01140000
C       -0.07390000      -0.66630000      -1.17400000
C       -0.05620000      -2.01280000      -1.23040000
C        0.03800000      -2.83070000      -0.01600000
O        0.05860000      -4.05960000      -0.03160000
C        0.08130000      -2.03400000       1.19980000
C        0.06920000      -0.67060000       1.19700000
N        0.20000000       0.10440000       2.35300000
H        0.86180000       1.85490000       0.62570000
H        0.19990000       1.83190000      -1.02210000
H       -0.89750000       1.93070000       0.36220000
H       -0.14350000      -0.04440000      -2.05870000
H       -0.11370000      -2.51740000      -2.18700000
H        0.11670000      -2.56170000       2.14640000
H        0.17920000      -0.46590000       3.18730000
H       -0.46410000       0.86420000       2.43470000
