16
Properties=species:S:1:pos:R:3 gdb_92734=T pbc="F F F"
C       -0.02440000       1.47510000       0.62080000
C       -0.13470000       0.08670000       0.08250000
N       -1.19600000      -0.42520000      -0.36170000
C       -1.14780000      -1.79170000      -0.86200000
C       -0.09660000      -2.62270000      -0.11740000
O        0.05050000      -3.90080000      -0.66580000
C        1.21760000      -1.86750000      -0.14830000
O        2.28000000      -2.38370000      -0.35730000
O        1.12850000      -0.53160000       0.09930000
H        0.70450000       2.04790000       0.03890000
H       -0.99830000       1.96030000       0.57600000
H        0.33380000       1.45310000       1.65500000
H       -2.13290000      -2.25110000      -0.75000000
H       -0.91900000      -1.78530000      -1.93630000
H       -0.39910000      -2.67630000       0.94440000
H        1.00340000      -4.06020000      -0.73120000
