15
Properties=species:S:1:pos:R:3 gdb_44927=T pbc="F F F"
O       -0.02060000       0.02350000       0.10100000
C       -0.04130000       1.22030000       0.03600000
C       -1.26830000       2.15290000      -0.01950000
C       -0.56060000       3.52560000       0.01680000
O        0.62490000       3.28290000      -0.76080000
C        1.15500000       2.19040000       0.01010000
C        1.28140000       2.80920000       1.41990000
C        0.02700000       3.70620000       1.42920000
O       -0.40150000       4.37430000       2.32770000
H       -1.79670000       2.01760000      -0.96790000
H       -1.96360000       1.95440000       0.79970000
H       -1.11410000       4.37810000      -0.36950000
H        2.06290000       1.79740000      -0.44120000
H        1.27780000       2.10140000       2.25210000
H        2.18180000       3.42690000       1.48930000
