19
Properties=species:S:1:pos:R:3 gdb_8905=T pbc="F F F"
C        0.04470000       1.55360000       0.01960000
C        0.02860000       0.02000000       0.02850000
C        0.77670000      -0.51790000       1.25320000
O        2.11730000      -0.05820000       1.17840000
C       -1.41940000      -0.54200000      -0.02400000
C       -2.22870000      -0.05350000      -1.24350000
C       -1.41420000      -2.01080000      -0.00810000
N       -1.41580000      -3.16710000      -0.01150000
H        1.06630000       1.90400000       0.17690000
H       -0.31500000       1.96550000      -0.92620000
H       -0.57940000       1.95750000       0.82650000
H        0.56290000      -0.34540000      -0.85780000
H        0.28230000      -0.15660000       2.17170000
H        0.73590000      -1.61570000       1.26330000
H        2.60640000      -0.43510000       1.91500000
H       -1.94170000      -0.21950000       0.88780000
H       -3.21230000      -0.52870000      -1.26670000
H       -2.37280000       1.02740000      -1.19870000
H       -1.71040000      -0.29840000      -2.17510000
