18
Properties=species:S:1:pos:R:3 gdb_110817=T pbc="F F F"
O       -0.05960000       0.58200000      -1.61610000
C       -0.01490000       0.13360000      -0.26550000
C       -1.34570000      -0.53690000      -0.01540000
C       -1.64390000      -1.97140000      -0.17500000
C       -0.48890000      -2.86480000       0.26640000
C       -0.60640000      -2.17330000       1.65930000
C        0.54190000      -1.53870000       2.27820000
C        1.49180000      -1.03730000       2.82010000
N       -1.75210000      -1.28650000       1.19280000
H        0.74660000       1.07640000      -1.78970000
H        0.82870000      -0.54580000      -0.09830000
H        0.10250000       0.97430000       0.43490000
H       -2.16480000       0.11580000      -0.31230000
H       -2.52830000      -2.32400000      -0.69520000
H       -0.74070000      -3.92490000       0.31000000
H        0.45250000      -2.74700000      -0.27510000
H       -1.04770000      -2.86580000       2.38220000
H        2.32770000      -0.58810000       3.29690000
