13
Properties=species:S:1:pos:R:3 gdb_5378=T pbc="F F F"
C       -0.00570000       1.44000000       0.03360000
N       -0.00590000      -0.01060000      -0.01460000
C        0.54520000      -0.66640000       0.90210000
O        1.17290000       0.03580000       1.99420000
C        1.75020000      -0.68090000       2.95510000
N        1.81170000      -1.95850000       3.01840000
C        1.19450000      -2.59680000       1.94560000
N        0.59890000      -2.04410000       0.94840000
H        1.01270000       1.85020000       0.03730000
H       -0.52900000       1.82300000      -0.84460000
H       -0.50980000       1.82070000       0.93170000
H        2.19010000      -0.05050000       3.72530000
H        1.23350000      -3.68320000       1.97580000
