20
Properties=species:S:1:pos:R:3 gdb_73496=T pbc="F F F"
C       -0.02540000       1.49920000       0.07930000
C        0.01670000       0.00050000      -0.08530000
C        0.97920000      -0.59080000      -1.10280000
O        0.41060000      -1.80610000      -1.57920000
C       -0.72490000      -2.16610000      -0.78040000
C       -0.27010000      -3.08280000       0.36460000
C        0.40320000      -2.08160000       1.32820000
N       -0.29170000      -0.78400000       1.13700000
C       -1.16290000      -0.89600000      -0.05000000
H        0.94640000       1.88320000       0.41060000
H       -0.27900000       1.99380000      -0.86460000
H       -0.76620000       1.77390000       0.83310000
H        1.10620000       0.10050000      -1.94600000
H        1.97680000      -0.77770000      -0.67690000
H       -1.47630000      -2.60790000      -1.43900000
H       -1.14130000      -3.54520000       0.84290000
H        0.39440000      -3.87560000       0.01330000
H        0.29450000      -2.37330000       2.37600000
H        1.47610000      -1.98560000       1.12850000
H       -2.19930000      -0.58100000       0.01800000
