19
Properties=species:S:1:pos:R:3 gdb_47716=T pbc="F F F"
N       -0.05430000       1.25300000       0.36700000
C       -0.02920000       0.04130000      -0.00590000
O        1.15630000      -0.56680000      -0.31150000
C        1.18970000      -1.82740000      -0.99500000
C        0.02120000      -2.72340000      -0.61130000
N       -1.24970000      -2.02800000      -0.79190000
C       -1.27170000      -0.80100000      -0.02690000
C       -2.06140000      -0.84520000       1.27880000
C       -2.60200000      -0.10760000       0.09030000
H        0.89120000       1.63890000       0.37190000
H        1.17600000      -1.63800000      -2.07850000
H        2.15640000      -2.27390000      -0.74150000
H        0.03750000      -3.63490000      -1.21790000
H        0.10340000      -3.01980000       0.44110000
H       -1.38280000      -1.81790000      -1.77850000
H       -2.50220000      -1.80400000       1.52610000
H       -1.67710000      -0.26080000       2.10540000
H       -2.57730000       0.97430000       0.10950000
H       -3.42100000      -0.56320000      -0.45480000
