16
Properties=species:S:1:pos:R:3 gdb_12915=T pbc="F F F"
O       -0.02110000       1.39380000      -0.01470000
C       -0.00390000       0.01650000      -0.03720000
C        0.70780000      -0.82930000      -1.10470000
C       -0.52160000      -1.80000000      -1.09240000
C       -1.19030000      -0.90960000      -0.03560000
C       -0.32830000      -0.78330000       1.22680000
C        0.51530000      -1.85150000       1.80290000
O        0.72440000      -1.97530000       2.98810000
H        0.75540000       1.70610000       0.46390000
H        0.78070000      -0.28120000      -2.04630000
H        1.69120000      -1.23740000      -0.85590000
H       -1.06170000      -1.78560000      -2.04090000
H       -0.33550000      -2.84060000      -0.81720000
H       -2.24600000      -0.67750000       0.02920000
H       -0.78980000      -0.15440000       1.98300000
H        0.97560000      -2.55490000       1.07600000
