17
Properties=species:S:1:pos:R:3 gdb_83503=T pbc="F F F"
O        0.05090000       1.38260000       0.12350000
C        0.00830000      -0.01610000       0.01360000
C       -1.37450000      -0.62470000      -0.37040000
C       -1.51100000      -0.06660000      -1.79310000
O       -0.15080000      -0.06090000      -2.29780000
C        0.68910000      -0.58090000      -1.24160000
C        0.37090000      -2.08000000      -1.13080000
O        1.05270000      -3.00960000      -1.46510000
C       -1.03190000      -2.12250000      -0.48950000
H        0.07000000       1.74170000      -0.77180000
H        0.39880000      -0.43420000       0.94630000
H       -2.19840000      -0.37490000       0.29710000
H       -2.13610000      -0.69000000      -2.44130000
H       -1.90280000       0.95680000      -1.80800000
H        1.72560000      -0.32280000      -1.44900000
H       -0.95930000      -2.61560000       0.48670000
H       -1.73430000      -2.69950000      -1.09780000
