20
Properties=species:S:1:pos:R:3 gdb_105308=T pbc="F F F"
C       -0.03050000       1.60870000       0.10590000
C       -0.12180000       0.08470000      -0.01970000
C        0.69590000      -0.48130000      -1.18960000
C        2.26450000      -0.43900000      -1.10570000
C        2.22680000      -1.95840000      -1.22180000
C        1.43060000      -2.55190000      -0.13650000
N        0.71070000      -2.00980000      -1.30900000
C        0.21100000       0.05500000      -2.45650000
C       -0.18380000       0.51390000      -3.49510000
H        1.00330000       1.93400000       0.26640000
H       -0.40040000       2.10170000      -0.79680000
H       -0.62400000       1.95970000       0.95520000
H        0.21950000      -0.37450000       0.91310000
H       -1.16440000      -0.22240000      -0.16100000
H        2.71550000       0.06830000      -1.95760000
H        2.69200000      -0.03980000      -0.18090000
H        2.84820000      -2.54890000      -1.88650000
H        1.35870000      -3.63430000      -0.09160000
H        1.37280000      -2.06020000       0.83040000
H       -0.53560000       0.90850000      -4.41600000
