17
Properties=species:S:1:pos:R:3 gdb_63794=T pbc="F F F"
C        0.36950000       1.47530000       0.06990000
C        0.07890000      -0.01280000       0.00060000
O       -1.30630000      -0.28460000      -0.13540000
C        0.94880000      -0.88640000      -0.97550000
C        1.34750000      -1.81820000       0.21410000
C        0.56100000      -0.90130000       1.17860000
O        1.81300000      -0.43870000       1.76900000
C        2.55930000      -1.28950000       0.97180000
O        3.73750000      -1.43600000       0.98260000
H        1.42030000       1.66350000       0.30160000
H        0.14260000       1.95170000      -0.89180000
H       -0.24760000       1.94490000       0.84160000
H       -1.61600000       0.13540000      -0.94540000
H        0.32880000      -1.39330000      -1.71630000
H        1.78180000      -0.38920000      -1.47690000
H        1.23360000      -2.89410000       0.11120000
H       -0.16390000      -1.21090000       1.92870000
