18
Properties=species:S:1:pos:R:3 gdb_14833=T pbc="F F F"
C       -0.31420000       1.37940000      -0.20190000
N        0.15940000       0.01490000       0.03260000
C        0.79410000      -0.57020000      -1.13260000
C        1.13060000      -2.07210000      -1.01250000
O        0.19720000      -2.38600000      -2.08880000
C       -0.16680000      -1.05340000      -2.20910000
N       -1.00300000      -0.50010000      -2.95520000
C       -1.78890000      -1.31500000      -3.87250000
H        0.48250000       2.08100000      -0.50620000
H       -1.06460000       1.36230000      -0.99580000
H       -0.78000000       1.76020000       0.71120000
H        0.82640000       0.01630000       0.79860000
H        1.61690000       0.03440000      -1.55240000
H        2.14750000      -2.37310000      -1.27520000
H        0.81380000      -2.52990000      -0.07230000
H       -2.85320000      -1.14730000      -3.67550000
H       -1.59780000      -0.98330000      -4.89900000
H       -1.58300000      -2.38950000      -3.80610000
