20
Properties=species:S:1:pos:R:3 gdb_82886=T pbc="F F F"
C       -0.03140000       1.52840000       0.13460000
C       -0.03320000       0.02790000       0.05330000
C        0.67570000      -0.73020000      -1.14430000
C        1.89870000      -0.79370000      -0.20890000
N        0.93070000      -0.81090000       0.93800000
C       -0.10060000      -1.92090000       0.60190000
C        0.10060000      -2.14290000      -0.91170000
C       -1.18860000      -0.82660000       0.61580000
O       -1.61030000      -0.40190000       1.88880000
H        0.97010000       1.94910000       0.00210000
H       -0.67560000       1.94740000      -0.64690000
H       -0.42120000       1.85490000       1.10280000
H        0.71490000      -0.33980000      -2.16260000
H        2.57030000      -1.65550000      -0.28490000
H        2.48790000       0.12510000      -0.16190000
H       -0.13270000      -2.77560000       1.27660000
H       -0.84250000      -2.34150000      -1.42860000
H        0.81010000      -2.93410000      -1.16830000
H       -2.08760000      -0.98880000       0.01560000
H       -0.80960000      -0.31370000       2.42290000
