17
Properties=species:S:1:pos:R:3 gdb_24414=T pbc="F F F"
C        0.01210000       1.42380000       0.01540000
C        1.46160000       1.95350000      -0.01420000
C        2.15470000       1.17870000      -1.07460000
C        1.70750000       0.03070000      -1.64390000
C        0.41380000      -0.58370000      -1.19720000
O       -0.03640000       0.00670000       0.01630000
C        2.68610000      -0.33420000      -2.62880000
C        3.64840000       0.62310000      -2.56440000
O        3.34150000       1.55870000      -1.61960000
H       -0.50080000       1.74390000       0.92600000
H       -0.53980000       1.82650000      -0.84930000
H        1.46310000       3.02900000      -0.22770000
H        1.93850000       1.81570000       0.96500000
H       -0.35940000      -0.48270000      -1.97910000
H        0.52230000      -1.65280000      -0.98510000
H        2.67930000      -1.19010000      -3.28610000
H        4.57360000       0.78130000      -3.09300000
