18
Properties=species:S:1:pos:R:3 gdb_54120=T pbc="F F F"
C        0.07990000       1.48730000       0.10600000
C        0.13700000      -0.02540000       0.08680000
C        0.62060000      -0.82400000      -1.13490000
C        1.77200000      -0.09400000      -1.81160000
O        2.48750000       0.01800000      -0.54720000
C        1.47550000      -0.75560000       0.09190000
C       -0.89720000      -0.81860000       0.84220000
N       -1.86700000      -0.09710000       1.47910000
O       -0.85830000      -2.03760000       0.90610000
H        1.00710000       1.90610000      -0.28930000
H       -0.75330000       1.87820000      -0.48990000
H       -0.01980000       1.86140000       1.13080000
H        0.04460000      -1.64890000      -1.52710000
H        2.33020000      -0.73160000      -2.50520000
H        1.58120000       0.88070000      -2.27450000
H        1.75740000      -1.48930000       0.83550000
H       -2.00800000       0.88250000       1.31110000
H       -2.60640000      -0.62070000       1.91860000
