23
Properties=species:S:1:pos:R:3 gdb_118250=T pbc="F F F"
C       -0.42620000       1.21130000      -0.63690000
O       -0.54990000      -0.18880000      -0.58580000
C       -0.87880000      -0.66550000       0.69990000
C       -0.99780000      -2.18480000       0.63770000
O       -1.17200000      -2.60830000       1.98360000
C       -2.14440000      -2.64450000      -0.27030000
C       -2.24380000      -4.15250000      -0.37910000
C       -3.01890000      -4.95870000       0.64750000
C       -3.54090000      -4.81270000      -0.76030000
H       -0.16820000       1.48100000      -1.66400000
H       -1.36630000       1.71560000      -0.36190000
H        0.36580000       1.57600000       0.03630000
H       -0.10280000      -0.39500000       1.43370000
H       -1.83060000      -0.23240000       1.05160000
H       -0.04930000      -2.57480000       0.23040000
H       -1.36410000      -3.55100000       1.96150000
H       -3.08650000      -2.24020000       0.12390000
H       -1.99200000      -2.20290000      -1.26130000
H       -1.34610000      -4.63070000      -0.76580000
H       -2.63370000      -5.92560000       0.95360000
H       -3.53800000      -4.41670000       1.43160000
H       -4.40530000      -4.17510000      -0.91390000
H       -3.50760000      -5.67910000      -1.41120000
