19
Properties=species:S:1:pos:R:3 gdb_22542=T pbc="F F F"
C       -0.67310000       1.40380000       0.06070000
C       -0.61950000      -0.10540000       0.30500000
C        0.70970000      -0.56470000       0.94310000
C        0.91400000       0.07230000       2.25400000
N        1.07020000       0.57120000       3.28490000
C        0.86940000      -2.07490000       1.08910000
C        2.16470000      -2.62760000       1.61640000
N       -0.12350000      -2.78730000       0.72360000
O        0.14060000      -4.15230000       0.86810000
H        0.12940000       1.72910000      -0.61090000
H       -1.62480000       1.68090000      -0.40130000
H       -0.57730000       1.96630000       0.99450000
H       -1.44590000      -0.42250000       0.94690000
H       -0.73360000      -0.65240000      -0.63450000
H        1.53770000      -0.21570000       0.30640000
H        2.83710000      -1.83360000       1.94490000
H        1.97380000      -3.30120000       2.45670000
H        2.66240000      -3.22300000       0.84340000
H       -0.68510000      -4.55350000       0.57580000
