20
Properties=species:S:1:pos:R:3 gdb_97329=T pbc="F F F"
C        0.66800000       1.45640000       0.08570000
N        1.02630000       0.05400000      -0.00050000
C        0.51920000      -0.60860000      -0.93630000
O        0.83830000      -1.94080000      -1.04170000
C        0.29060000      -2.66000000      -2.07940000
O       -0.45990000      -2.18960000      -2.89030000
C        0.78980000      -4.09100000      -2.03390000
C       -0.03190000      -4.98200000      -2.96720000
C        2.29600000      -4.12610000      -2.36730000
H        1.57730000       2.06460000       0.02960000
H       -0.02780000       1.79210000      -0.69860000
H        0.21360000       1.65260000       1.06290000
H       -0.16920000      -0.25820000      -1.70840000
H        0.67180000      -4.42500000      -0.99570000
H        0.05890000      -4.64570000      -4.00370000
H        0.32070000      -6.01550000      -2.90600000
H       -1.09310000      -4.96290000      -2.70590000
H        2.86910000      -3.49670000      -1.68300000
H        2.66930000      -5.15120000      -2.28930000
H        2.47520000      -3.77950000      -3.39060000
