27
Properties=species:S:1:pos:R:3 gdb_101473=T pbc="F F F"
C       -0.14380000       1.53730000      -0.10820000
C       -0.06810000       0.01450000       0.04900000
C        0.73880000      -0.47580000       1.26910000
C        0.08270000      -0.03910000       2.58820000
C        0.94530000      -2.00220000       1.21880000
C        1.72490000      -2.50560000      -0.03240000
C        2.59490000      -3.70710000       0.43510000
C        2.16740000      -3.98070000       1.89110000
C        1.72860000      -2.60370000       2.40510000
H        0.85820000       1.97940000      -0.15460000
H       -0.66650000       1.80750000      -1.03130000
H       -0.67780000       2.01410000       0.71910000
H       -1.08510000      -0.39860000       0.10920000
H        0.37390000      -0.40500000      -0.86150000
H        1.73690000      -0.01140000       1.21700000
H       -0.90680000      -0.49940000       2.70190000
H        0.68520000      -0.32880000       3.45330000
H       -0.04990000       1.04540000       2.63380000
H       -0.05020000      -2.47150000       1.21410000
H        1.04370000      -2.78900000      -0.83930000
H        2.36000000      -1.70630000      -0.43060000
H        2.47780000      -4.58510000      -0.20630000
H        3.65600000      -3.43710000       0.40450000
H        1.31230000      -4.66790000       1.91230000
H        2.96090000      -4.43590000       2.49110000
H        2.61160000      -1.98470000       2.61950000
H        1.14030000      -2.66030000       3.32500000
