19
Properties=species:S:1:pos:R:3 gdb_88888=T pbc="F F F"
C        0.63980000       1.21050000      -0.91790000
C       -0.06070000       0.06820000      -0.21820000
C        0.64900000      -1.23230000       0.04200000
C        0.29740000      -0.32500000       1.20590000
N        1.36410000       0.35740000       1.84670000
C        1.29560000       0.53650000       3.09870000
N        2.31560000       1.20250000       3.77040000
C        2.32280000       1.43740000       5.12420000
O        1.45140000       1.09730000       5.88950000
H        1.68660000       1.27160000      -0.61280000
H        0.60380000       1.07990000      -2.00500000
H        0.16720000       2.16990000      -0.68010000
H       -1.12150000      -0.01510000      -0.44140000
H        0.10840000      -2.16710000      -0.05670000
H        1.70140000      -1.28410000      -0.21480000
H       -0.52940000      -0.64470000       1.84350000
H        0.48720000       0.21220000       3.75810000
H        3.08900000       1.52400000       3.20550000
H        3.23320000       1.98290000       5.43680000
