20
Properties=species:S:1:pos:R:3 gdb_51785=T pbc="F F F"
N       -0.03550000       1.29820000       0.08320000
C       -0.01580000       0.04220000      -0.04990000
O       -1.15270000      -0.66810000       0.03830000
C       -1.04980000      -2.09810000       0.02360000
C       -1.07180000      -2.68780000       1.45200000
C       -1.72170000      -4.07950000       1.30520000
C       -2.64600000      -3.94850000       0.09850000
C       -3.54690000      -2.74350000       0.03870000
C       -2.22630000      -2.72620000      -0.69190000
H        0.90350000       1.67180000      -0.03790000
H        0.87180000      -0.57530000      -0.25400000
H       -0.12190000      -2.37520000      -0.49590000
H       -0.07590000      -2.72510000       1.90060000
H       -1.67980000      -2.03000000       2.07920000
H       -0.95950000      -4.83920000       1.09610000
H       -2.24310000      -4.39110000       2.21660000
H       -2.96310000      -4.85250000      -0.40920000
H       -4.43570000      -2.82110000      -0.57730000
H       -3.67520000      -2.12030000       0.91690000
H       -2.22900000      -2.71490000      -1.77550000
