19
Properties=species:S:1:pos:R:3 gdb_61178=T pbc="F F F"
C       -0.08970000       1.57840000       0.20430000
C        0.01030000       0.05510000      -0.05030000
C       -1.33690000      -0.54380000      -0.00020000
N       -2.40310000      -0.98550000       0.05200000
N        0.68290000      -0.37080000      -1.27780000
C        0.07100000       0.09930000      -2.51500000
C        2.12920000      -0.15680000      -1.23080000
C        2.83980000      -0.93980000      -2.23970000
C        3.44160000      -1.56720000      -3.06860000
H        0.90840000       2.02450000       0.22020000
H       -0.68280000       2.07230000      -0.56860000
H       -0.56460000       1.76810000       1.17040000
H        0.57170000      -0.38950000       0.78170000
H        0.18610000       1.18440000      -2.68200000
H        0.53490000      -0.42170000      -3.35550000
H       -0.99500000      -0.14150000      -2.51020000
H        2.40790000       0.90740000      -1.35490000
H        2.48560000      -0.45520000      -0.23670000
H        3.97110000      -2.13190000      -3.79570000
