16
Properties=species:S:1:pos:R:3 gdb_53632=T pbc="F F F"
C       -0.06940000       1.48780000       0.01100000
C       -0.01540000       0.03280000       0.00240000
C        0.04570000      -1.16940000      -0.00480000
C        0.08550000      -2.62670000      -0.01310000
C       -1.32510000      -3.23830000      -0.00280000
C       -1.30800000      -4.74720000      -0.01120000
O       -0.31790000      -5.43360000      -0.02450000
C       -2.64890000      -5.37770000      -0.00180000
N       -3.70240000      -5.85430000       0.00570000
H        0.93680000       1.92090000       0.00390000
H       -0.60150000       1.87220000      -0.86610000
H       -0.58490000       1.86240000       0.90210000
H        0.62730000      -2.99170000      -0.89330000
H        0.64410000      -3.00110000       0.85240000
H       -1.89530000      -2.90870000       0.87570000
H       -1.91220000      -2.89920000      -0.86650000
