21
Properties=species:S:1:pos:R:3 gdb_97646=T pbc="F F F"
C        0.27300000       1.46870000       0.29690000
C       -0.25440000       0.11340000      -0.20880000
C        0.47930000      -0.39050000      -1.36590000
C        1.11200000      -0.77610000      -2.31640000
C        1.84780000      -1.29110000      -3.46770000
C        2.19650000      -2.79090000      -3.28070000
O        3.14990000      -3.25340000      -4.20830000
C        1.02890000      -1.04830000      -4.74700000
O        1.79190000      -1.49850000      -5.86780000
H        1.32270000       1.39060000       0.59260000
H        0.19920000       2.23020000      -0.48420000
H       -0.30570000       1.80470000       1.16260000
H       -0.20450000      -0.62440000       0.60230000
H       -1.31800000       0.20640000      -0.46380000
H        2.80010000      -0.75340000      -3.57110000
H        2.62420000      -2.93370000      -2.28400000
H        1.25940000      -3.37320000      -3.31930000
H        2.84700000      -2.96200000      -5.07870000
H        0.07900000      -1.59700000      -4.67190000
H        0.79660000       0.02110000      -4.83990000
H        1.23220000      -1.47820000      -6.64920000
