14
Properties=species:S:1:pos:R:3 gdb_376=T pbc="F F F"
C        0.04480000       1.47450000       0.08200000
N       -0.11410000       0.03820000      -0.10870000
C        0.67600000      -0.52690000      -1.19980000
C        2.20900000      -0.52990000      -1.00820000
C        0.20770000      -1.90090000      -1.45730000
N       -0.12840000      -2.98940000      -1.64890000
H        1.06810000       1.80910000       0.31810000
H       -0.27750000       1.99650000      -0.82590000
H       -0.61010000       1.79520000       0.89670000
H        0.07980000      -0.46350000       0.75150000
H        0.43970000       0.06080000      -2.09730000
H        2.57280000       0.49100000      -0.86880000
H        2.48410000      -1.12380000      -0.13150000
H        2.71020000      -0.95670000      -1.88140000
