16
Properties=species:S:1:pos:R:3 gdb_35044=T pbc="F F F"
C        0.13350000      -1.22730000       0.01380000
C        0.10160000      -0.02470000       0.00520000
C        0.05140000       1.40440000       0.01790000
C        0.45570000       2.18720000       1.26280000
C        1.01940000       1.46690000       2.46670000
O        2.25730000       0.77070000       2.23350000
C        2.93760000       0.97530000       1.08830000
N        2.60990000       1.62720000       0.05240000
C        1.33250000       2.25570000       0.04710000
H        0.16900000      -2.28840000       0.00670000
H       -0.76330000       1.83920000      -0.55450000
H       -0.15950000       3.04610000       1.51120000
H        1.21160000       2.19640000       3.26130000
H        0.32480000       0.71340000       2.85230000
H        3.89910000       0.46950000       1.14050000
H        1.29630000       3.14810000      -0.56850000
