17
Properties=species:S:1:pos:R:3 gdb_31733=T pbc="F F F"
C        0.14610000       1.29870000      -0.13040000
N        0.25110000      -0.14590000      -0.06310000
C        0.74450000      -0.70980000       1.09240000
C        0.89490000      -0.19420000       2.34360000
O        1.37940000      -1.21400000       3.15210000
C        1.50190000      -2.26420000       2.33270000
C        2.00390000      -3.57220000       2.85750000
O        2.11260000      -4.51990000       1.82540000
N        1.14680000      -2.04190000       1.10550000
H        1.10050000       1.81560000       0.05840000
H       -0.22160000       1.58750000      -1.11700000
H       -0.58000000       1.65060000       0.61130000
H        0.60910000      -0.59500000      -0.89310000
H        0.72500000       0.75550000       2.81450000
H        2.98300000      -3.42070000       3.33580000
H        1.32160000      -3.92540000       3.64780000
H        1.72570000      -4.11550000       1.03690000
