18
Properties=species:S:1:pos:R:3 gdb_70453=T pbc="F F F"
O       -0.23970000       1.37400000       0.11400000
C        0.00540000       0.02160000       0.04410000
C       -0.78320000      -0.94960000       0.87150000
C        0.72480000      -0.97240000       0.93260000
O        1.27720000      -1.67150000      -0.19450000
C        0.70860000      -0.69660000      -1.11810000
C       -0.07510000      -1.31860000      -2.24590000
C        0.48160000      -2.47590000      -2.98660000
N       -0.67840000      -2.64940000      -2.08970000
H        0.59100000       1.84460000      -0.02240000
H       -1.24250000      -0.47660000       1.73480000
H       -1.35160000      -1.76300000       0.43230000
H        1.32740000      -0.90190000       1.82940000
H        1.51530000      -0.06400000      -1.52070000
H       -0.69670000      -0.60370000      -2.78290000
H        0.27090000      -2.59740000      -4.04520000
H        1.44040000      -2.86890000      -2.65920000
H       -0.32990000      -3.04420000      -1.21800000
