21
Properties=species:S:1:pos:R:3 gdb_107538=T pbc="F F F"
C       -0.22100000       1.54170000      -0.08750000
C        0.11330000       0.04860000       0.03910000
C        0.78410000      -0.50920000      -1.18700000
C        0.01980000      -1.01390000      -2.38750000
C        0.95390000      -1.95080000      -1.67520000
C        2.39590000      -1.66310000      -2.10610000
C        2.25800000      -0.19640000      -1.56460000
C        2.50090000       0.95480000      -2.50180000
O        3.13530000       1.94250000      -2.22240000
H        0.68190000       2.13430000      -0.26700000
H       -0.90810000       1.72080000      -0.92100000
H       -0.69180000       1.91790000       0.82580000
H        0.76280000      -0.10760000       0.91070000
H       -0.80360000      -0.52250000       0.23300000
H       -1.03650000      -1.18120000      -2.19940000
H        0.23390000      -0.68340000      -3.40050000
H        0.60630000      -2.86810000      -1.21510000
H        3.15160000      -2.22160000      -1.55150000
H        2.60120000      -1.76970000      -3.17720000
H        2.86460000      -0.03680000      -0.66980000
H        2.03310000       0.85040000      -3.50800000
