21
Properties=species:S:1:pos:R:3 gdb_70365=T pbc="F F F"
O       -0.36950000       1.23260000       0.24300000
C        0.03160000      -0.09280000       0.05320000
C       -0.38760000      -1.03820000       1.13510000
C        1.08980000      -0.76150000       0.92110000
C        1.88950000      -1.74560000       0.07740000
C        1.21150000      -1.76970000      -1.31470000
C        0.06990000      -2.78880000      -1.61780000
C       -0.90010000      -1.60760000      -1.91450000
C        0.16790000      -0.60970000      -1.37620000
H        0.28420000       1.80250000      -0.17760000
H       -0.83860000      -0.56690000       2.00140000
H       -0.80070000      -2.01040000       0.88930000
H        1.59810000      -0.19280000       1.69260000
H        2.92430000      -1.39470000      -0.00920000
H        1.93420000      -2.74820000       0.52070000
H        1.95260000      -1.74740000      -2.11700000
H        0.25790000      -3.46800000      -2.45300000
H       -0.21530000      -3.39670000      -0.75460000
H       -1.09800000      -1.48130000      -2.98180000
H       -1.85740000      -1.61080000      -1.38770000
H        0.39810000       0.23260000      -2.03680000
