17
Properties=species:S:1:pos:R:3 gdb_14978=T pbc="F F F"
C       -0.10490000       1.37180000       0.01030000
O       -0.09140000      -0.04640000      -0.06190000
C        0.64370000      -0.56030000      -1.10990000
C        0.73270000      -2.06960000      -0.98310000
C        1.37420000      -2.64770000      -2.24930000
N        0.79930000      -2.11530000      -3.48130000
C        0.17980000      -1.01670000      -3.41280000
O       -0.01250000      -0.19840000      -2.34650000
H        0.91710000       1.77510000       0.06180000
H       -0.61830000       1.81280000      -0.85060000
H       -0.63880000       1.63420000       0.92540000
H        1.64530000      -0.09780000      -1.14860000
H        1.30040000      -2.32650000      -0.08460000
H       -0.28500000      -2.45410000      -0.85910000
H        2.45610000      -2.45600000      -2.26010000
H        1.26170000      -3.73660000      -2.26370000
H       -0.29830000      -0.58990000      -4.29280000
