17
Properties=species:S:1:pos:R:3 gdb_99830=T pbc="F F F"
C        0.03790000       1.20140000      -0.67880000
O       -0.18350000      -0.19050000      -0.48800000
C       -1.39930000      -0.56630000       0.14020000
C       -1.51860000      -0.07570000       1.59030000
C       -2.55000000      -0.08130000      -0.66000000
N       -3.42120000       0.32690000      -1.30030000
C       -1.47010000      -2.13200000       0.12950000
N       -0.60860000      -2.71510000      -0.72950000
O       -2.26430000      -2.71510000       0.83500000
H        0.96620000       1.28440000      -1.24660000
H       -0.77710000       1.66280000      -1.24940000
H        0.15630000       1.72800000       0.27520000
H       -1.66580000       1.00480000       1.63700000
H       -2.36640000      -0.57550000       2.05940000
H       -0.60520000      -0.34250000       2.12880000
H        0.06400000      -2.15670000      -1.22620000
H       -0.58780000      -3.71980000      -0.78310000
