19
Properties=species:S:1:pos:R:3 gdb_75476=T pbc="F F F"
C       -0.10840000       1.52100000       0.00140000
C       -0.01100000       0.02920000      -0.01210000
C        0.07280000      -0.79030000      -1.05690000
C        0.10640000      -2.21870000      -0.60140000
O        0.05430000      -2.15400000       0.82170000
C       -0.02960000      -0.80060000       1.25510000
C        1.13640000      -0.48390000       2.22180000
C        1.09220000      -1.27050000       3.44660000
C        1.03590000      -1.91190000       4.46120000
H        0.74450000       1.97980000       0.51630000
H       -0.14410000       1.92630000      -1.01290000
H       -1.00940000       1.85210000       0.53280000
H        0.09630000      -0.49930000      -2.10020000
H       -0.75010000      -2.79910000      -0.98040000
H        1.01820000      -2.74950000      -0.91730000
H       -0.97200000      -0.65540000       1.80950000
H        2.07960000      -0.65930000       1.69030000
H        1.10450000       0.58390000       2.47450000
H        0.99330000      -2.48580000       5.35320000
