21
Properties=species:S:1:pos:R:3 gdb_104669=T pbc="F F F"
C        0.04490000       0.69670000       0.81300000
O        0.15150000      -0.59780000       0.23900000
C        0.46910000      -0.61750000      -1.13630000
C        1.75830000       0.06200000      -1.55430000
O        1.64680000       1.45640000      -1.81420000
C        0.03710000      -1.89950000      -1.83400000
C       -0.54980000      -3.07140000      -1.07930000
C       -0.74180000      -0.61410000      -2.04430000
O       -2.00620000      -0.44630000      -1.47620000
H        1.03270000       1.15720000       0.96550000
H       -0.57760000       1.36400000       0.20350000
H       -0.41580000       0.57140000       1.79640000
H        2.53450000      -0.15050000      -0.80300000
H        2.09420000      -0.37570000      -2.49880000
H        1.51970000       1.91530000      -0.98010000
H        0.68040000      -2.18490000      -2.66340000
H       -1.18190000      -2.75210000      -0.24940000
H       -1.15990000      -3.68630000      -1.74870000
H        0.24050000      -3.70450000      -0.66350000
H       -0.67790000      -0.10620000      -3.00070000
H       -1.90670000      -0.60900000      -0.53030000
