16
Properties=species:S:1:pos:R:3 gdb_80346=T pbc="F F F"
N        0.22950000       1.47560000      -0.05140000
C        0.01920000       0.08100000      -0.04580000
C       -0.33540000      -0.75230000      -1.26050000
O        0.43010000      -1.79090000      -1.76370000
C       -1.19500000      -0.90260000      -0.04830000
N       -0.47200000      -1.84680000       0.83350000
C        0.61550000      -0.83300000       1.04460000
C        1.98460000      -1.33130000       0.89180000
N        3.07080000      -1.71470000       0.79870000
H        0.21310000       1.87980000      -0.97780000
H       -0.39250000       1.99330000       0.55740000
H       -0.77170000      -0.15010000      -2.05490000
H        0.40040000      -2.49820000      -1.10170000
H       -2.26950000      -0.77130000       0.00150000
H       -0.96760000      -2.03980000       1.69610000
H        0.53320000      -0.34330000       2.02090000
