17
Properties=species:S:1:pos:R:3 gdb_53735=T pbc="F F F"
C       -0.00830000       1.41400000       0.42900000
C        0.04140000      -0.00810000      -0.09400000
O        1.05880000      -0.52230000      -0.51140000
C       -1.21470000      -0.72640000      -0.06430000
C       -2.25430000      -1.34480000      -0.03490000
C       -3.49950000      -2.05510000      -0.02080000
O       -4.59630000      -1.37330000       0.52480000
C       -3.77590000      -3.05630000      -1.13970000
C       -3.50070000      -3.54160000       0.25470000
H        0.98550000       1.85940000       0.36500000
H       -0.72210000       2.00610000      -0.15400000
H       -0.35780000       1.42230000       1.46700000
H       -4.77190000      -0.60460000      -0.02970000
H       -4.80240000      -3.08030000      -1.48730000
H       -3.01670000      -3.19190000      -1.90050000
H       -2.55090000      -4.01630000       0.46600000
H       -4.34110000      -3.88820000       0.84470000
