12
Properties=species:S:1:pos:R:3 gdb_20518=T pbc="F F F"
C       -0.06280000       1.49350000       0.01010000
C        0.03490000      -0.01390000       0.00380000
O        1.08830000      -0.61670000      -0.00850000
C       -1.23560000      -0.77020000       0.01180000
C       -1.42700000      -2.12430000       0.00810000
O       -2.71230000      -2.39340000       0.01780000
N       -3.38980000      -1.08480000       0.02990000
N       -2.49950000      -0.21440000       0.02500000
H        0.94070000       1.91880000       0.00250000
H       -0.62780000       1.84220000      -0.86070000
H       -0.61180000       1.83580000       0.89370000
H       -0.72880000      -2.94570000      -0.00140000
