20
Properties=species:S:1:pos:R:3 gdb_112428=T pbc="F F F"
C        0.18840000       1.41910000       0.29590000
C        0.23220000      -0.10090000       0.11680000
C        0.58320000      -0.52050000      -1.31860000
N        1.92200000      -0.12000000      -1.73510000
C        2.87850000      -1.10030000      -1.68420000
O        4.05910000      -0.95640000      -1.90900000
C        2.14850000      -2.38870000      -1.29020000
C        0.66650000      -2.05880000      -1.52840000
O       -0.25210000      -2.71010000      -0.67450000
H        1.16330000       1.87800000       0.09820000
H       -0.54210000       1.87900000      -0.37990000
H       -0.09410000       1.68520000       1.31860000
H        0.95950000      -0.53790000       0.81110000
H       -0.73850000      -0.53850000       0.36720000
H       -0.16130000      -0.08890000      -1.99910000
H        2.19090000       0.83820000      -1.89300000
H        2.52420000      -3.23800000      -1.86410000
H        2.32980000      -2.58760000      -0.22780000
H        0.42360000      -2.26410000      -2.58150000
H       -0.20200000      -3.65530000      -0.84580000
