19
Properties=species:S:1:pos:R:3 gdb_33919=T pbc="F F F"
C        0.01750000      -1.15460000       0.07020000
C        0.01270000       0.04700000       0.00290000
C       -0.01760000       1.48300000      -0.06060000
C        0.54810000       2.13120000      -1.30760000
C        1.33080000       2.21510000      -0.01260000
C        1.37920000       3.49310000       0.73740000
C        0.28370000       4.16730000       1.09180000
C       -1.10210000       3.66770000       0.77320000
C       -1.17050000       2.12970000       0.70760000
H        0.02800000      -2.21460000       0.12620000
H        0.91720000       1.47080000      -2.08340000
H        0.08270000       3.04210000      -1.66650000
H        2.21190000       1.58660000       0.05080000
H        2.36450000       3.87780000       0.98570000
H        0.37420000       5.11260000       1.61880000
H       -1.81500000       4.02080000       1.52660000
H       -1.44760000       4.10020000      -0.17640000
H       -2.12480000       1.81480000       0.27250000
H       -1.14360000       1.73130000       1.72830000
