16
Properties=species:S:1:pos:R:3 gdb_105999=T pbc="F F F"
O        0.06250000       1.31210000       0.30900000
C        0.00860000      -0.04870000      -0.08920000
C       -1.37090000      -0.59990000      -0.00050000
C       -2.29350000      -0.97280000       1.15430000
C       -3.46080000      -0.41430000       0.31010000
C       -3.19110000      -1.37320000      -0.79460000
N       -2.53580000      -0.01410000      -0.80780000
C       -1.98770000      -1.96510000       0.01280000
O       -1.35990000      -3.17620000       0.02330000
H       -0.58900000       1.78170000      -0.22460000
H        0.38440000      -0.17760000      -1.11720000
H        0.67560000      -0.60520000       0.57720000
H       -2.09100000      -1.04750000       2.21310000
H       -4.34920000       0.15490000       0.55840000
H       -3.80270000      -1.72630000      -1.61730000
H       -1.88090000      -3.79480000       0.54910000
