19
Properties=species:S:1:pos:R:3 gdb_102686=T pbc="F F F"
O        0.04690000       1.23210000      -0.31990000
C       -0.11450000      -0.15080000      -0.02840000
C       -1.59470000      -0.46880000       0.24380000
C       -2.09670000       0.22230000       1.52300000
O       -2.22460000       1.62160000       1.36240000
N       -2.37480000      -0.00380000      -0.91780000
C       -2.92210000      -1.06020000      -1.75580000
C       -3.62300000      -0.50160000      -2.91680000
N       -4.19040000      -0.06270000      -3.82180000
H       -0.56750000       1.39370000      -1.05220000
H        0.25790000      -0.76920000      -0.85940000
H        0.50000000      -0.36750000       0.85120000
H       -1.70430000      -1.55490000       0.38510000
H       -3.09500000      -0.15140000       1.77880000
H       -1.42460000      -0.03750000       2.35640000
H       -1.37180000       1.93250000       1.02310000
H       -3.09360000       0.64450000      -0.61560000
H       -2.10200000      -1.68700000      -2.12650000
H       -3.61950000      -1.73770000      -1.23170000
