19
Properties=species:S:1:pos:R:3 gdb_47034=T pbc="F F F"
N        0.00640000       0.91220000       1.09340000
C        0.08180000       0.06610000       0.15580000
C       -1.14320000      -0.36640000      -0.61940000
N       -1.16530000      -1.80980000      -0.83790000
C       -1.61060000      -2.32560000      -2.15130000
C       -0.39470000      -3.28590000      -2.17790000
C        0.15560000      -2.47230000      -0.98070000
C        1.23790000      -1.45210000      -1.28840000
O        1.27340000      -0.47930000      -0.23260000
H        0.93920000       1.10880000       1.46340000
H       -2.02160000      -0.02620000      -0.06660000
H       -1.13220000       0.18110000      -1.58110000
H       -2.60770000      -2.77740000      -2.14440000
H       -1.58150000      -1.56800000      -2.95040000
H       -0.63820000      -4.31700000      -1.91990000
H        0.21010000      -3.27980000      -3.08680000
H        0.44630000      -3.04640000      -0.09270000
H        2.23660000      -1.89480000      -1.31800000
H        1.05370000      -0.95450000      -2.25070000
