14
Properties=species:S:1:pos:R:3 gdb_52375=T pbc="F F F"
O       -0.16080000       0.20780000       0.61400000
C        0.07390000       1.09630000      -0.15860000
C        1.37440000       1.88570000      -0.14490000
O        1.31140000       2.84180000      -1.18010000
C        2.44720000       3.63710000      -1.27880000
C        2.27650000       4.62680000      -2.41610000
O        1.31420000       4.71760000      -3.12590000
C        3.44890000       5.51480000      -2.58880000
N        4.37150000       6.20070000      -2.71110000
H       -0.63730000       1.41850000      -0.94920000
H        1.49510000       2.35820000       0.84330000
H        2.21700000       1.18850000      -0.28080000
H        2.64640000       4.21350000      -0.35630000
H        3.36370000       3.05040000      -1.47570000
