20
Properties=species:S:1:pos:R:3 gdb_38994=T pbc="F F F"
C       -0.03870000       1.46010000       0.12400000
N        1.27350000       0.80950000      -0.08220000
C        1.61920000       0.23170000       1.26800000
C        0.38500000      -0.69640000       1.26070000
O        0.79900000      -2.03530000       1.06840000
C       -0.06910000      -2.78040000       0.22490000
C       -0.06760000      -2.21630000      -1.19710000
C       -0.60020000      -0.77210000      -1.19630000
C       -0.01820000      -0.00280000      -0.04460000
H       -0.26020000       1.90550000       1.09300000
H       -0.35750000       2.05540000      -0.72720000
H        2.54440000      -0.34310000       1.21770000
H        1.68430000       0.98220000       2.06230000
H       -0.32970000      -0.63830000       2.09600000
H        0.30810000      -3.80670000       0.24390000
H       -1.09430000      -2.79200000       0.63450000
H        0.96180000      -2.23610000      -1.57160000
H       -0.67280000      -2.85040000      -1.85410000
H       -0.38150000      -0.26110000      -2.13990000
H       -1.69420000      -0.78970000      -1.08740000
