21
Properties=species:S:1:pos:R:3 gdb_94449=T pbc="F F F"
C       -0.37500000       1.42580000      -0.11490000
C        0.08820000      -0.02200000      -0.14770000
C        1.46400000      -0.33260000      -0.76550000
O        1.90200000      -1.01160000       0.42480000
C        0.67580000      -0.68940000       1.14560000
C        0.93930000       0.14310000       2.42250000
C        0.01140000      -0.43260000       3.52080000
C       -0.42530000      -1.75480000       2.93980000
C       -0.05700000      -1.89310000       1.66790000
H        0.41290000       2.09600000       0.24320000
H       -0.66030000       1.76000000      -1.11850000
H       -1.24820000       1.55230000       0.53450000
H       -0.70170000      -0.64930000      -0.57160000
H        1.47110000      -0.98950000      -1.64380000
H        2.08040000       0.55140000      -0.98290000
H        1.98850000      -0.02210000       2.68440000
H        0.80690000       1.21680000       2.27570000
H        0.51690000      -0.54490000       4.48710000
H       -0.85490000       0.21670000       3.70550000
H       -0.99390000      -2.48220000       3.50970000
H       -0.26610000      -2.74390000       1.02860000
