23
Properties=species:S:1:pos:R:3 gdb_64492=T pbc="F F F"
C       -0.05740000       1.63430000       0.53500000
C       -0.03270000       0.14830000       0.15040000
C       -1.48120000      -0.30430000      -0.03150000
C       -2.39350000       0.37290000      -1.03100000
C       -2.01790000      -1.07150000      -1.21600000
C        1.05990000      -0.38840000      -0.85380000
C        2.13710000      -0.13540000       0.24100000
C        0.93060000      -0.79120000       0.97650000
C        0.89060000      -1.79960000      -0.20470000
H        0.90690000       2.03390000       0.85010000
H       -0.41620000       2.24860000      -0.29670000
H       -0.75850000       1.78380000       1.36430000
H       -1.96490000      -0.53810000       0.91570000
H       -3.40500000       0.62020000      -0.72750000
H       -1.95240000       1.08830000      -1.71740000
H       -1.33720000      -1.30650000      -2.02700000
H       -2.76700000      -1.83580000      -1.03610000
H        1.14540000      -0.15790000      -1.91860000
H        3.03350000      -0.75670000       0.16800000
H        2.40450000       0.89260000       0.47880000
H        0.85440000      -1.02170000       2.04200000
H       -0.03730000      -2.33900000      -0.37610000
H        1.75630000      -2.46150000      -0.29060000
