20
Properties=species:S:1:pos:R:3 gdb_92421=T pbc="F F F"
C       -0.08630000       1.55760000      -0.07860000
N       -0.02350000       0.13050000       0.13840000
C       -1.22040000      -0.61450000       0.56020000
C       -0.33120000      -1.54150000       1.40850000
C        0.51300000      -2.59490000       0.63610000
C        1.73230000      -1.62330000       0.60040000
C        0.84050000      -0.49810000       1.16700000
C        1.33830000       0.34310000       2.29890000
O        2.37440000       0.14930000       2.88900000
H        0.92480000       1.95520000      -0.21630000
H       -0.64870000       1.76080000      -0.99750000
H       -0.57190000       2.12450000       0.73630000
H       -1.90910000      -0.01930000       1.18390000
H       -1.79610000      -1.06620000      -0.25820000
H       -0.67800000      -1.81190000       2.40420000
H        0.68590000      -3.52420000       1.18240000
H        0.09830000      -2.84280000      -0.34410000
H        2.51660000      -1.89750000       1.30900000
H        2.17290000      -1.41530000      -0.37590000
H        0.65660000       1.16880000       2.60440000
