17
Properties=species:S:1:pos:R:3 gdb_34325=T pbc="F F F"
N       -0.15170000      -1.21100000      -0.05870000
C       -0.08210000      -0.05700000      -0.00850000
C       -0.02490000       1.40780000       0.01540000
C       -0.67850000       2.02420000       1.27350000
C        0.55630000       2.33400000       2.18270000
C        1.67670000       2.58260000       1.17430000
C        1.36630000       2.00610000       0.02260000
C        1.32840000       2.13250000      -1.48160000
N       -0.17270000       2.00490000      -1.36060000
H       -1.15950000       2.95820000       0.97100000
H       -1.42170000       1.38290000       1.75260000
H        0.38450000       3.20890000       2.81740000
H        0.78000000       1.49750000       2.85770000
H        2.52880000       3.21960000       1.37880000
H        1.66730000       3.07740000      -1.91420000
H        1.79600000       1.29600000      -2.01670000
H       -0.58550000       1.36770000      -2.03710000
