20
Properties=species:S:1:pos:R:3 gdb_106103=T pbc="F F F"
C       -0.02870000       1.57390000       0.04790000
C        0.07920000       0.06390000      -0.07270000
C        0.83360000      -0.61890000      -1.20640000
C        2.30380000      -0.73630000      -0.73390000
C        2.34710000      -0.12510000       0.65300000
N        0.96560000      -0.69420000       0.91840000
C        1.25140000      -1.68790000      -0.24440000
C        1.09650000      -3.15940000      -0.08940000
O        1.84500000      -3.64320000       1.01580000
H        0.90330000       2.08680000      -0.20080000
H       -0.80000000       1.94500000      -0.63550000
H       -0.31930000       1.85370000       1.06650000
H       -0.91730000      -0.37940000       0.02870000
H        0.57230000      -0.72570000      -2.25270000
H        3.10220000      -0.93290000      -1.43900000
H        3.06100000      -0.63670000       1.30300000
H        2.44380000       0.95620000       0.78690000
H        0.02990000      -3.41740000       0.01420000
H        1.47240000      -3.67460000      -0.98030000
H        1.55930000      -3.12490000       1.77790000
