12
Properties=species:S:1:pos:R:3 gdb_21509=T pbc="F F F"
N       -0.09570000       1.32890000       0.00910000
C        0.08150000      -0.00670000       0.00220000
O        1.12570000      -0.61330000      -0.00860000
N       -1.16460000      -0.71640000       0.01030000
C       -1.34100000      -2.06190000       0.00740000
N       -2.62300000      -2.35190000       0.01710000
C       -3.21190000      -1.11770000       0.02590000
N       -2.37880000      -0.09660000       0.02240000
H        0.71880000       1.91670000       0.00310000
H       -1.02580000       1.71540000       0.01700000
H       -0.50930000      -2.74760000      -0.00170000
H       -4.28250000      -0.97620000       0.03520000
