18
Properties=species:S:1:pos:R:3 gdb_99820=T pbc="F F F"
C       -0.01850000       1.52660000      -0.14450000
C        0.01350000       0.00040000      -0.04860000
C        0.79120000      -0.53170000       1.16970000
O        2.16390000      -0.17170000       1.14960000
C        0.17110000      -0.06430000       2.43130000
N       -0.29200000       0.31380000       3.42110000
C        0.74360000      -2.10000000       1.20700000
C        1.88880000      -2.78770000       1.90700000
O       -0.18280000      -2.67820000       0.70210000
H        0.98730000       1.95010000      -0.24640000
H       -0.58480000       1.83690000      -1.02660000
H       -0.49380000       1.97620000       0.73310000
H       -0.99780000      -0.41070000      -0.00420000
H        0.49270000      -0.42960000      -0.93410000
H        2.23220000       0.78510000       1.24110000
H        2.02780000      -2.37180000       2.91000000
H        1.68530000      -3.85720000       1.96110000
H        2.81960000      -2.60420000       1.36260000
