18
Properties=species:S:1:pos:R:3 gdb_125986=T pbc="F F F"
C       -0.29930000       1.50690000       0.06570000
C       -0.00730000       0.01210000       0.01430000
C        0.80480000      -0.50650000      -1.24940000
N        1.77550000      -1.01600000      -0.27470000
N        3.06030000      -1.40530000      -0.10640000
C        3.24440000      -1.15790000       1.20120000
N        4.47630000      -1.43040000       1.79880000
C        2.10910000      -0.56460000       1.84310000
C        1.19150000      -0.49850000       0.81430000
H        0.60800000       2.09260000      -0.11150000
H       -1.04330000       1.78550000      -0.68780000
H       -0.69420000       1.78860000       1.04680000
H       -0.92430000      -0.56220000       0.17990000
H        0.33650000      -1.27480000      -1.87140000
H        1.19320000       0.30090000      -1.87830000
H        5.04320000      -2.03100000       1.21370000
H        4.39330000      -1.82000000       2.72790000
H        2.02660000      -0.25830000       2.87240000
