16
Properties=species:S:1:pos:R:3 gdb_122784=T pbc="F F F"
O       -0.22920000       1.43680000       0.01270000
C       -0.03660000       0.03410000       0.00260000
C       -1.41930000      -0.60960000       0.01220000
C       -1.33710000      -2.12460000       0.00240000
O       -2.69660000      -2.63090000       0.01280000
C       -2.81580000      -3.95540000       0.00720000
O       -1.92710000      -4.76270000      -0.00530000
C       -4.23630000      -4.33190000       0.01900000
N       -5.33520000      -4.68630000       0.02720000
H        0.63350000       1.86160000       0.00720000
H        0.52120000      -0.28930000      -0.89180000
H        0.53840000      -0.29970000       0.88210000
H       -1.96320000      -0.27370000       0.90100000
H       -1.98040000      -0.26310000      -0.86160000
H       -0.83250000      -2.51080000      -0.88900000
H       -0.81500000      -2.52140000       0.87890000
