25
Properties=species:S:1:pos:R:3 gdb_63373=T pbc="F F F"
C        0.41030000       1.43060000      -0.08810000
C       -0.11340000      -0.01620000       0.02610000
C       -1.64820000       0.01160000       0.14470000
C        0.35950000      -0.90650000      -1.16940000
C        1.46300000      -1.88100000      -0.64180000
C        1.18300000      -3.33750000      -1.05490000
C        2.87030000      -1.47950000      -1.13050000
C        1.35040000      -1.69750000       0.85930000
C        0.52290000      -0.71870000       1.20990000
H        1.49840000       1.45210000      -0.20150000
H       -0.03240000       1.93760000      -0.95330000
H        0.15680000       2.01360000       0.80470000
H       -2.10100000       0.46330000      -0.74550000
H       -2.05320000      -0.99930000       0.25530000
H       -1.96780000       0.59900000       1.01320000
H       -0.48730000      -1.48560000      -1.55120000
H        0.72440000      -0.29920000      -2.00360000
H        1.20310000      -3.44530000      -2.14550000
H        1.93550000      -4.01840000      -0.64080000
H        0.20100000      -3.66580000      -0.69990000
H        3.09700000      -0.43900000      -0.87890000
H        3.64160000      -2.10880000      -0.67200000
H        2.95170000      -1.59260000      -2.21770000
H        1.92490000      -2.31000000       1.54860000
H        0.31650000      -0.40740000       2.23010000
