17
Properties=species:S:1:pos:R:3 gdb_106941=T pbc="F F F"
O       -0.02920000       1.42450000       0.41020000
C       -0.01810000       0.10680000      -0.10460000
C       -1.37110000      -0.54160000       0.00050000
C       -1.87700000      -1.23120000       1.21740000
C       -1.65490000      -2.02270000      -0.08600000
C       -2.85560000      -2.13750000      -0.96370000
O       -3.33640000      -3.13180000      -1.44200000
C       -3.35000000      -0.70140000      -1.21480000
O       -2.33740000       0.17870000      -0.74910000
H       -0.72330000       1.89920000      -0.06120000
H        0.30520000       0.08800000      -1.15700000
H        0.71100000      -0.45860000       0.48370000
H       -1.17110000      -1.44600000       2.01160000
H       -2.89340000      -1.04690000       1.54790000
H       -0.90220000      -2.79940000      -0.12090000
H       -3.51770000      -0.54130000      -2.28460000
H       -4.30200000      -0.53200000      -0.69230000
