22
Properties=species:S:1:pos:R:3 gdb_89888=T pbc="F F F"
C        0.02080000       1.60090000       0.00630000
C        0.07650000       0.08180000      -0.00180000
C        1.10500000      -0.63170000      -0.92510000
C        1.36720000      -1.65560000       0.20960000
C        0.72620000      -0.65570000       1.20390000
C        0.78290000      -3.09480000       0.16940000
N        2.09930000      -3.71210000       0.56530000
C        3.03650000      -3.34260000      -0.50920000
C        2.70510000      -2.31690000       0.50050000
H        1.01430000       2.02790000       0.18610000
H       -0.34090000       1.99200000      -0.95140000
H       -0.64830000       1.97210000       0.79090000
H       -0.92460000      -0.32510000      -0.18440000
H        0.75110000      -1.01860000      -1.88500000
H        1.98490000      -0.00360000      -1.10580000
H        1.48850000      -0.03090000       1.68430000
H        0.07070000      -1.06120000       1.98020000
H        0.03240000      -3.28660000       0.94040000
H        0.40700000      -3.45470000      -0.79570000
H        3.99730000      -3.84130000      -0.42300000
H        2.66410000      -3.24600000      -1.52770000
H        3.42400000      -1.97350000       1.23970000
