21
Properties=species:S:1:pos:R:3 gdb_105748=T pbc="F F F"
C       -0.18940000       1.48220000       0.04050000
C        0.01330000      -0.03240000      -0.02020000
C        0.78200000      -0.51360000      -1.26200000
C        0.87040000      -2.07510000      -1.36090000
C        0.38090000      -2.39630000      -2.79310000
C        0.35340000      -1.01610000      -3.46440000
O        0.03400000      -0.11130000      -2.41750000
C        2.13230000       0.07670000      -1.31460000
C        3.23760000       0.54830000      -1.36440000
H        0.77020000       2.00590000       0.07820000
H       -0.73210000       1.83290000      -0.84090000
H       -0.76260000       1.75780000       0.93070000
H        0.55180000      -0.38280000       0.86790000
H       -0.95700000      -0.54220000      -0.03390000
H        1.89200000      -2.41550000      -1.18650000
H        0.23170000      -2.53520000      -0.60330000
H        1.02980000      -3.10380000      -3.31480000
H       -0.62630000      -2.82090000      -2.76840000
H        1.33330000      -0.76960000      -3.90100000
H       -0.41020000      -0.91010000      -4.23870000
H        4.21050000       0.97210000      -1.40880000
