14
Properties=species:S:1:pos:R:3 gdb_129652=T pbc="F F F"
N        0.00550000       1.38350000       0.14270000
C       -0.04390000       0.01610000       0.06740000
C       -1.20900000      -0.69440000      -0.02220000
N       -2.45460000      -0.04160000      -0.11170000
C       -1.13120000      -2.12210000      -0.11980000
O       -2.10310000      -2.86420000      -0.25800000
C        0.25220000      -2.62300000      -0.03190000
N        1.33060000      -1.93400000       0.10450000
O        1.17540000      -0.55030000       0.14510000
H        0.90470000       1.79010000      -0.07320000
H       -0.77850000       1.83430000      -0.31190000
H       -2.68110000       0.48390000       0.72740000
H       -3.16610000      -0.75600000      -0.24880000
H        0.41110000      -3.69780000      -0.05860000
