15
Properties=species:S:1:pos:R:3 gdb_28766=T pbc="F F F"
O       -0.03380000       1.39410000      -0.06890000
C        0.01710000       0.04930000       0.05140000
C        1.04900000      -0.86360000       0.15050000
N        0.56590000      -2.16520000       0.28840000
C       -0.72290000      -2.01860000       0.15170000
C       -2.06100000      -2.43000000       0.72560000
C       -2.28900000      -1.55450000       1.95320000
C       -2.44300000      -0.95940000       0.57940000
N       -1.12700000      -0.70610000      -0.04760000
H        0.86670000       1.73390000      -0.09770000
H        2.10900000      -0.66070000       0.09160000
H       -2.65260000      -3.30600000       0.50230000
H       -3.21540000      -1.72540000       2.49600000
H       -1.44460000      -1.26910000       2.57240000
H       -3.34150000      -0.50660000       0.18440000
