19
Properties=species:S:1:pos:R:3 gdb_107825=T pbc="F F F"
C       -0.21620000       1.50540000       0.12050000
C        0.10630000       0.01240000      -0.01580000
C        0.88680000      -0.53800000       1.15380000
C        2.27600000       0.02070000       1.45940000
O        2.78690000      -0.83030000       2.49330000
C        1.98540000      -1.98610000       2.51510000
C        0.49000000      -1.79920000       2.70670000
O        0.14330000      -0.44640000       2.42690000
C        1.06320000      -2.07010000       1.33680000
H        0.69000000       2.11920000       0.10940000
H       -0.85280000       1.83890000      -0.70380000
H       -0.74360000       1.69750000       1.05890000
H       -0.82380000      -0.56030000      -0.09910000
H        0.67780000      -0.17600000      -0.93400000
H        2.93200000      -0.01050000       0.57520000
H        2.23080000       1.04340000       1.84310000
H        2.48200000      -2.85800000       2.92360000
H       -0.15440000      -2.37180000       3.36450000
H        0.94670000      -2.85500000       0.60140000
