23
Properties=species:S:1:pos:R:3 gdb_107657=T pbc="F F F"
C        0.22120000       1.50490000      -0.19880000
C       -0.13980000       0.05430000       0.13990000
C        0.68530000      -0.51450000       1.27350000
C        2.06010000      -1.06210000       0.98860000
C        0.92190000      -2.00330000       1.37270000
C        0.92840000      -2.67580000       2.74490000
C        0.34630000      -1.75830000       3.83330000
C        0.85900000      -0.33070000       3.66900000
O        0.44240000       0.23820000       2.43760000
H        1.26550000       1.58630000      -0.51880000
H       -0.40990000       1.88730000      -1.00690000
H        0.08770000       2.14750000       0.67490000
H       -1.19910000      -0.00900000       0.41880000
H       -0.00500000      -0.58290000      -0.74170000
H        2.41250000      -1.05900000      -0.03770000
H        2.84330000      -0.91390000       1.72520000
H        0.51060000      -2.60130000       0.56480000
H        0.35110000      -3.60470000       2.70130000
H        1.95130000      -2.96550000       3.01610000
H       -0.74760000      -1.73590000       3.76040000
H        0.60040000      -2.13200000       4.83120000
H        0.45260000       0.32830000       4.44180000
H        1.95760000      -0.30390000       3.76070000
