19
Properties=species:S:1:pos:R:3 gdb_79799=T pbc="F F F"
C        0.25900000       1.57840000       0.21050000
C        0.00490000       0.08690000       0.10310000
C        0.62860000      -0.78290000      -1.06160000
C        2.04780000      -1.52650000      -0.84040000
C        3.05020000      -1.14740000       0.26220000
C        2.07930000      -0.58780000       1.30450000
C        0.81630000      -0.90920000       0.95990000
C        0.79740000      -1.95890000      -0.17840000
O        0.10340000      -3.15120000      -0.21280000
H        1.32700000       1.80800000       0.14580000
H       -0.25520000       2.11040000      -0.59730000
H       -0.11710000       1.97680000       1.15920000
H       -1.07310000      -0.11680000       0.08860000
H        0.24470000      -0.79180000      -2.07960000
H        2.38000000      -2.02080000      -1.75160000
H        3.67140000      -2.01270000       0.53820000
H        3.74370000      -0.34150000      -0.00920000
H        2.33100000       0.32910000       1.83010000
H        0.55590000      -3.77840000       0.36250000
