18
Properties=species:S:1:pos:R:3 gdb_102858=T pbc="F F F"
O        0.12310000       1.43860000       0.09030000
C        0.08240000       0.02290000       0.08160000
C       -1.36200000      -0.50600000       0.02850000
C       -2.07270000      -0.08920000      -1.27450000
C       -2.26530000       1.40890000      -1.39990000
O       -1.81580000       2.07810000      -2.29700000
C       -1.40150000      -2.04600000       0.17110000
C       -0.85700000      -2.52280000       1.44140000
N       -0.42870000      -2.88740000       2.45090000
H        0.15130000       1.76030000      -0.81610000
H        0.66270000      -0.39640000      -0.75430000
H        0.55670000      -0.31410000       1.00900000
H       -1.89860000      -0.06820000       0.87930000
H       -1.52350000      -0.44140000      -2.15490000
H       -3.07550000      -0.53960000      -1.29540000
H       -2.88800000       1.86390000      -0.59830000
H       -2.43370000      -2.40320000       0.08650000
H       -0.84040000      -2.51560000      -0.64650000
