20
Properties=species:S:1:pos:R:3 gdb_111553=T pbc="F F F"
C       -0.30250000       1.34900000       0.19350000
O        0.15920000       0.04900000      -0.10740000
C        0.74700000      -0.60260000       0.98630000
C       -0.12580000      -1.31560000       2.04580000
C       -1.05190000      -2.25810000       1.25890000
C        0.24200000      -2.97290000       0.91430000
N        0.96390000      -2.43300000       2.12380000
C        1.33610000      -1.97070000       0.72840000
C        2.65460000      -2.28690000       0.09470000
H        0.51200000       1.99270000       0.56030000
H       -0.70060000       1.77500000      -0.73020000
H       -1.10090000       1.34000000       0.95050000
H        1.49050000       0.04480000       1.47690000
H       -0.44350000      -0.81900000       2.96020000
H       -1.66910000      -2.86210000       1.92850000
H       -1.65710000      -1.83190000       0.45430000
H        0.37450000      -4.00360000       0.60310000
H        2.92610000      -3.33310000       0.26460000
H        2.61350000      -2.11580000      -0.98650000
H        3.45030000      -1.65980000       0.51010000
