15
Properties=species:S:1:pos:R:3 gdb_60726=T pbc="F F F"
C        0.03690000       1.53110000       0.10350000
N       -0.01090000       0.06450000      -0.01900000
C        0.04020000      -0.68380000       1.17340000
O        0.11970000      -0.18510000       2.26670000
C       -0.10220000      -0.64490000      -1.20550000
O       -0.13880000      -1.86180000      -1.24740000
C       -0.15870000       0.14840000      -2.54200000
N       -0.24690000      -0.70830000      -3.57990000
O       -0.12670000       1.35990000      -2.63010000
H        0.90240000       1.93400000      -0.42000000
H       -0.85990000       1.98280000      -0.31720000
H        0.10500000       1.73990000       1.17030000
H       -0.00100000      -1.76210000       0.98200000
H       -0.26470000      -1.69850000      -3.39640000
H       -0.29060000      -0.34430000      -4.51630000
