19
Properties=species:S:1:pos:R:3 gdb_41755=T pbc="F F F"
C        0.09740000       1.58390000      -0.10010000
O        1.37700000       2.09730000       0.24940000
C        2.38040000       1.10770000       0.51830000
C        1.85620000       0.10280000       1.52470000
C        0.65440000      -0.40960000       1.27240000
C       -0.01800000       0.04480000      -0.00110000
C        0.59350000      -0.64820000      -1.24410000
C        2.04790000      -0.35390000      -1.50660000
C        2.84010000       0.41100000      -0.75630000
H       -0.63450000       2.04150000       0.57810000
H       -0.14810000       1.90580000      -1.12280000
H        3.21260000       1.67760000       0.93810000
H        2.44840000      -0.14970000       2.39790000
H        0.16320000      -1.11980000       1.93000000
H       -1.08500000      -0.20150000       0.01850000
H        0.45810000      -1.73770000      -1.16570000
H        0.01000000      -0.34750000      -2.12670000
H        2.46100000      -0.82270000      -2.39800000
H        3.87550000       0.56020000      -1.05000000
