20
Properties=species:S:1:pos:R:3 gdb_14050=T pbc="F F F"
C       -0.01540000       1.23940000      -0.35940000
C        1.40220000       1.54640000       0.15620000
C        1.32980000       0.14610000       0.80340000
C        2.21640000      -0.97420000       0.25430000
C        1.91250000      -2.14010000       1.20510000
C        1.87100000      -1.47040000       2.59910000
C        1.43810000      -0.00050000       2.33250000
O       -0.05040000      -0.01640000       0.34330000
H       -0.80990000       1.91800000      -0.02620000
H       -0.10080000       1.10610000      -1.44570000
H        2.17550000       1.67260000      -0.60440000
H        1.46190000       2.37170000       0.86880000
H        2.00460000      -1.18490000      -0.79740000
H        3.27000000      -0.67380000       0.33800000
H        0.92910000      -2.55250000       0.95580000
H        2.63930000      -2.95450000       1.14370000
H        1.19390000      -1.98690000       3.28400000
H        2.86440000      -1.49480000       3.05910000
H        2.17780000       0.70670000       2.72260000
H        0.47620000       0.24970000       2.78670000
