17
Properties=species:S:1:pos:R:3 gdb_28343=T pbc="F F F"
C       -0.00620000       1.53060000      -0.03430000
C       -0.04450000       0.03070000      -0.01460000
C       -1.18180000      -0.70500000      -0.11240000
C       -1.17820000      -2.13240000      -0.09050000
C        0.01910000      -2.75740000       0.04130000
N        0.24140000      -4.11000000       0.15810000
O        1.17310000      -2.06770000       0.13220000
C        1.22380000      -0.66010000       0.11550000
N        2.35380000      -0.08380000       0.20940000
H        0.61510000       1.89800000      -0.85830000
H       -1.01300000       1.94390000      -0.13920000
H        0.44410000       1.92500000       0.88320000
H       -2.13470000      -0.19330000      -0.21360000
H       -2.09110000      -2.70710000      -0.16400000
H       -0.49280000      -4.70150000      -0.19890000
H        1.16930000      -4.40630000      -0.10750000
H        3.10580000      -0.76700000       0.29390000
