22
Properties=species:S:1:pos:R:3 gdb_115850=T pbc="F F F"
C       -0.14000000       1.47630000      -0.03860000
N        0.05100000       0.03850000       0.02140000
C        1.26290000      -0.64300000      -0.39450000
C        2.58990000       0.10760000      -0.44800000
C        2.80410000       0.72140000       0.95960000
C        1.85880000      -0.04700000       1.91900000
C        1.31140000       0.79130000       3.06810000
O        2.41680000       1.20660000       3.86080000
C        0.79890000      -0.69580000       1.03160000
H        0.74930000       2.09520000       0.13940000
H       -0.52610000       1.72920000      -1.03230000
H       -0.90370000       1.76210000       0.69230000
H        1.11730000      -1.46700000      -1.09040000
H        3.38050000      -0.61320000      -0.68550000
H        2.61330000       0.86610000      -1.23890000
H        3.84430000       0.64640000       1.28370000
H        2.56400000       1.78860000       0.96730000
H        2.41700000      -0.87370000       2.38030000
H        0.75920000       1.65930000       2.67610000
H        0.60200000       0.19030000       3.66000000
H        2.08610000       1.76380000       4.57120000
H        0.27180000      -1.55580000       1.44200000
