17
Properties=species:S:1:pos:R:3 gdb_131821=T pbc="F F F"
O        0.15080000       1.39740000      -0.26080000
C        0.06360000       0.02200000       0.05670000
C       -1.35280000      -0.53140000      -0.12520000
C       -1.41990000      -2.03780000       0.14260000
N       -2.77530000      -2.55990000       0.03700000
C       -3.39810000      -3.21210000      -0.96040000
N       -4.64570000      -3.44240000      -0.61360000
N       -4.77950000      -2.90990000       0.62950000
N       -3.67190000      -2.37840000       1.02990000
H       -0.37900000       1.88620000       0.37740000
H        0.75590000      -0.48310000      -0.62690000
H        0.41790000      -0.18150000       1.08040000
H       -2.04170000      -0.02530000       0.56160000
H       -1.69360000      -0.31590000      -1.14370000
H       -0.80050000      -2.59330000      -0.56770000
H       -1.06400000      -2.27080000       1.15000000
H       -2.92550000      -3.49630000      -1.88650000
