19
Properties=species:S:1:pos:R:3 gdb_35716=T pbc="F F F"
N       -0.19660000      -1.23050000       0.05710000
C       -0.10790000      -0.07730000       0.05800000
C        0.04620000       1.38570000       0.05590000
C       -0.20510000       2.02860000       1.45530000
C        1.33470000       2.06710000       1.60100000
N        1.44420000       1.86840000       0.13940000
C        2.52170000       1.11650000      -0.41670000
C        2.86980000       1.35520000      -1.86350000
C        3.77740000       1.86900000      -0.77500000
H       -0.51780000       1.79110000      -0.79040000
H       -0.65450000       3.01740000       1.36260000
H       -0.76320000       1.42860000       2.17170000
H        1.79200000       2.99080000       1.96700000
H        1.71990000       1.21980000       2.18780000
H        2.64860000       0.09680000      -0.04450000
H        3.19090000       0.50520000      -2.45410000
H        2.27320000       2.08500000      -2.39820000
H        3.77890000       2.93700000      -0.59110000
H        4.72860000       1.37530000      -0.61250000
