17
Properties=species:S:1:pos:R:3 gdb_67951=T pbc="F F F"
O        0.12510000       1.35410000      -0.25980000
C        0.08330000      -0.03420000      -0.02380000
C        0.41100000      -0.83860000      -1.31290000
C       -0.79820000      -1.72700000      -0.99380000
O       -1.16970000      -2.79770000      -1.37960000
C       -1.30250000      -0.77910000       0.11180000
C       -1.38960000      -1.37900000       1.52490000
C        0.01140000      -1.16610000       2.05910000
C        0.79580000      -0.47200000       1.23250000
H       -0.06770000       1.80110000       0.57180000
H        0.23320000      -0.22800000      -2.20540000
H        1.38420000      -1.32730000      -1.39720000
H       -2.17030000      -0.19490000      -0.20420000
H       -2.14200000      -0.88990000       2.15610000
H       -1.65920000      -2.44120000       1.48770000
H        0.32290000      -1.56110000       3.02060000
H        1.83340000      -0.21190000       1.41370000
