13
Properties=species:S:1:pos:R:3 gdb_130655=T pbc="F F F"
O        0.01480000      -0.02120000      -0.01890000
C       -0.01560000       1.17270000      -0.01320000
C       -1.24750000       2.10290000       0.02260000
N       -0.71370000       3.46470000      -0.13000000
C        0.66020000       3.37890000      -0.03610000
C        1.82180000       4.10240000       0.00750000
N        2.86310000       3.19670000       0.02660000
N        2.43960000       1.97930000      -0.00510000
N        1.06350000       2.07430000      -0.03660000
H       -1.93350000       1.83630000      -0.78650000
H       -1.76840000       1.95550000       0.97580000
H       -1.17320000       4.20780000       0.37380000
H        1.99490000       5.16400000       0.02720000
