18
Properties=species:S:1:pos:R:3 gdb_23496=T pbc="F F F"
O       -0.18200000       1.29620000       0.01340000
N       -0.04420000      -0.11060000      -0.05850000
C       -1.17000000      -0.68700000       0.00560000
C       -2.59910000      -0.20520000       0.08810000
C       -3.12170000      -0.76010000      -1.27770000
C       -2.89490000      -2.12760000      -0.61160000
C       -3.21050000      -1.50830000       0.78420000
C       -2.07240000      -2.32840000       1.41440000
C       -1.41820000      -2.17300000       0.00400000
H        0.73410000       1.58710000      -0.04320000
H       -2.79360000       0.80770000       0.42730000
H       -4.18850000      -0.56400000      -1.42010000
H       -2.56650000      -0.49100000      -2.18080000
H       -3.31720000      -3.06680000      -0.96630000
H       -4.21530000      -1.42720000       1.19650000
H       -1.52160000      -1.93380000       2.27330000
H       -2.39240000      -3.35570000       1.61180000
H       -0.63370000      -2.83250000      -0.35920000
