19
Properties=species:S:1:pos:R:3 gdb_71164=T pbc="F F F"
O       -0.02720000       1.43530000       0.00020000
C        0.06720000       0.06170000       0.07670000
C       -1.22500000      -0.75990000      -0.12180000
C       -0.53040000      -1.84490000       0.70640000
C        0.96420000      -1.82360000       0.33260000
C        0.40650000      -0.85790000       1.35200000
C        1.13010000      -0.73510000      -0.70190000
C        1.40220000      -0.77160000      -2.16970000
C        2.41970000      -0.17200000      -1.20830000
H        0.85590000       1.80460000       0.11730000
H       -2.05990000      -0.31700000       0.42800000
H       -1.52110000      -0.97850000      -1.15360000
H       -0.98010000      -2.71970000       1.15750000
H        1.60810000      -2.67510000       0.51050000
H        0.66620000      -0.65710000       2.38120000
H        1.63980000      -1.72400000      -2.63270000
H        0.85540000      -0.08580000      -2.81010000
H        2.54650000       0.90780000      -1.23260000
H        3.33920000      -0.71750000      -1.02130000
