23
Properties=species:S:1:pos:R:3 gdb_91326=T pbc="F F F"
C       -0.07470000       1.53180000       0.03170000
C        0.02130000       0.01710000      -0.03170000
C        1.17340000      -0.63400000      -0.86670000
C        1.14870000      -1.79080000       0.17730000
C        0.61720000      -0.74360000       1.19080000
C        0.03180000      -2.79860000      -0.13890000
C       -1.15490000      -2.10280000      -0.84470000
O       -2.39400000      -2.76700000      -0.61960000
C       -1.32580000      -0.64120000      -0.39350000
H        0.88010000       1.97710000       0.33160000
H       -0.35160000       1.95370000      -0.94170000
H       -0.83450000       1.84980000       0.75580000
H        1.00140000      -0.86290000      -1.92250000
H        2.09210000      -0.04630000      -0.77950000
H        2.09220000      -2.29050000       0.40880000
H        1.43150000      -0.17720000       1.65330000
H       -0.07330000      -1.08610000       1.96860000
H        0.40570000      -3.61390000      -0.77140000
H       -0.32940000      -3.25310000       0.79180000
H       -0.94190000      -2.09460000      -1.92420000
H       -2.32020000      -3.65920000      -0.97350000
H       -1.99070000      -0.61990000       0.47840000
H       -1.83090000      -0.07930000      -1.18770000
