17
Properties=species:S:1:pos:R:3 gdb_77998=T pbc="F F F"
C       -0.17980000       1.54740000       0.02960000
C        0.15180000       0.06480000       0.03320000
N        1.36620000      -0.35100000      -0.76540000
C        1.80660000      -1.21890000       0.35590000
C        2.23430000      -2.56340000       0.18000000
N        2.57820000      -3.65910000       0.02830000
C        2.22000000      -0.27070000       1.45060000
O        2.81510000       0.93620000       1.13400000
C        0.74790000      -0.58430000       1.29100000
H        0.65860000       2.14080000       0.39840000
H       -0.43570000       1.88270000      -0.98090000
H       -1.04460000       1.73770000       0.67410000
H       -0.71900000      -0.51940000      -0.28620000
H        1.12800000      -0.87790000      -1.59820000
H        2.67140000      -0.73750000       2.32070000
H        2.70910000       1.03340000       0.17300000
H        0.17620000      -1.05490000       2.08070000
