16
Properties=species:S:1:pos:R:3 gdb_54704=T pbc="F F F"
N        0.51140000       0.50220000       0.91620000
C        0.01760000       0.01940000      -0.25380000
O        0.44110000       0.34240000      -1.34970000
C       -1.11360000      -1.00070000      -0.12170000
C       -0.88810000      -2.39830000       0.47750000
C       -1.23070000      -2.26590000       1.96910000
O       -1.52470000      -0.88960000       2.23830000
C       -2.23450000      -0.88550000       0.95690000
C       -2.32810000      -2.45420000       0.98440000
H        1.22400000       1.21190000       0.87290000
H        0.06110000       0.26310000       1.78830000
H       -1.56440000      -1.10050000      -1.11070000
H       -0.28180000      -3.20330000       0.08390000
H       -0.83360000      -2.88340000       2.76290000
H       -3.03180000      -0.14790000       0.91140000
H       -3.13040000      -3.16800000       0.86840000
