19
Properties=species:S:1:pos:R:3 gdb_106576=T pbc="F F F"
C       -0.08110000       1.53690000      -0.04640000
C       -0.01660000       0.01820000      -0.01640000
C        1.30400000      -0.63450000      -0.55670000
O        1.93930000      -0.28290000       0.71870000
C        0.61560000      -0.65000000       1.26490000
C        0.42960000      -0.21370000       2.69300000
O        1.39600000      -0.82560000       3.53010000
C        0.54590000      -2.14260000       0.88840000
C        1.01490000      -2.13050000      -0.36050000
H        0.85770000       1.97450000       0.30000000
H       -0.27350000       1.89090000      -1.06520000
H       -0.89470000       1.90970000       0.58550000
H       -0.94480000      -0.43800000      -0.36990000
H        1.83700000      -0.28040000      -1.43870000
H        0.47640000       0.88360000       2.75650000
H       -0.55500000      -0.52860000       3.05670000
H        2.24910000      -0.70000000       3.09740000
H        0.19090000      -2.94770000       1.51420000
H        1.15070000      -2.92530000      -1.07890000
