14
Properties=species:S:1:pos:R:3 gdb_34840=T pbc="F F F"
N       -0.00980000      -1.25280000      -0.06170000
C       -0.01070000      -0.09790000      -0.01800000
C       -0.05010000       1.35410000       0.03510000
C        0.00240000       2.08240000       1.40630000
C        1.47690000       1.63290000       1.44960000
N        1.32570000       2.08060000      -0.02550000
C        0.55600000       3.28090000       0.59140000
C       -0.31120000       4.03370000      -0.30270000
N       -1.00700000       4.64990000      -0.98970000
H       -0.75750000       1.73340000      -0.70540000
H       -0.75610000       2.09360000       2.19240000
H        2.18430000       2.24350000       2.01340000
H        1.68700000       0.56900000       1.55530000
H        1.22480000       3.96040000       1.12270000
