14
Properties=species:S:1:pos:R:3 gdb_131166=T pbc="F F F"
O        0.08960000       1.40680000      -0.01590000
C        0.06940000       0.05350000      -0.01680000
C        0.03580000      -0.76550000      -1.12670000
N        0.01370000      -0.46550000      -2.47990000
C       -0.01730000      -1.38370000      -3.49250000
N       -0.03060000      -2.64390000      -3.27230000
N        0.02760000      -2.01250000      -0.59590000
N        0.05390000      -1.97710000       0.74480000
N        0.07950000      -0.70880000       1.09220000
H        0.10810000       1.68480000       0.90840000
H        0.02430000       0.51350000      -2.71270000
H       -0.02890000      -0.90910000      -4.47810000
H       -0.05380000      -3.16440000      -4.14370000
H        0.00530000      -2.86520000      -1.14290000
