16
Properties=species:S:1:pos:R:3 gdb_54476=T pbc="F F F"
C        0.07500000       1.11990000      -0.82340000
C       -0.09410000       0.10660000       0.28680000
O        0.71090000      -0.03810000       1.18280000
C       -1.30370000      -0.75890000       0.23820000
C       -1.82010000      -1.48770000       1.45030000
C       -1.27170000      -2.30880000       0.32190000
N       -2.20830000      -2.75460000      -0.67380000
C       -2.70720000      -1.70690000      -1.19240000
O       -2.25410000      -0.48870000      -0.78360000
H        1.00600000       1.66640000      -0.67160000
H        0.08550000       0.61990000      -1.79760000
H       -0.77260000       1.81280000      -0.83930000
H       -1.18420000      -1.38420000       2.32150000
H       -2.89110000      -1.49170000       1.62190000
H       -0.35620000      -2.87390000       0.44580000
H       -3.47500000      -1.67220000      -1.95500000
