16
Properties=species:S:1:pos:R:3 gdb_84309=T pbc="F F F"
C       -0.03200000       1.58550000       0.00730000
C        0.01640000       0.04960000       0.03580000
C        0.75980000      -0.52500000      -1.14040000
C        1.80950000      -1.24500000      -0.74830000
C        1.88730000      -1.26970000       0.73550000
O        2.69090000      -1.82370000       1.43620000
N        0.77580000      -0.48810000       1.17110000
C        0.34250000      -0.33490000       2.47980000
O        0.88960000      -0.74880000       3.46600000
H        0.98040000       1.99840000      -0.00090000
H       -0.55710000       1.92610000      -0.89030000
H       -0.56300000       1.98090000       0.87700000
H       -1.01180000      -0.34000000       0.05880000
H        0.44780000      -0.32120000      -2.15700000
H        2.53450000      -1.76560000      -1.35710000
H       -0.61040000       0.23270000       2.51330000
