16
Properties=species:S:1:pos:R:3 gdb_43693=T pbc="F F F"
O        0.14690000       0.14560000      -0.32650000
C        0.03200000       1.29020000      -0.00490000
C       -1.17010000       2.21250000       0.25140000
C       -0.19680000       3.19940000       0.93980000
C        1.03170000       2.38300000       0.41720000
O       -0.34790000       4.51410000       0.45530000
C        0.54140000       5.42530000       1.05750000
C        0.30630000       6.76160000       0.50400000
N        0.14530000       7.82540000       0.08590000
H       -1.55920000       2.63700000      -0.68020000
H       -1.99820000       1.80440000       0.83390000
H       -0.27220000       3.18310000       2.03560000
H        1.81360000       2.08760000       1.12020000
H        1.48800000       2.85970000      -0.45760000
H        0.39840000       5.46510000       2.14960000
H        1.59230000       5.15050000       0.87590000
