15
Properties=species:S:1:pos:R:3 gdb_27362=T pbc="F F F"
C       -0.02260000       1.44740000       0.10780000
C       -0.00220000      -0.03680000      -0.05600000
N       -0.02560000      -0.63120000      -1.17330000
C       -0.00360000      -2.05410000      -1.23060000
N       -0.02640000      -2.68330000      -2.34250000
C        0.04620000      -2.74640000       0.04690000
C        0.06770000      -2.02700000       1.17440000
O        0.11300000      -2.52770000       2.41370000
O        0.04490000      -0.66250000       1.17900000
H        0.86990000       1.78360000       0.64550000
H       -0.05930000       1.91690000      -0.87370000
H       -0.89310000       1.75360000       0.69700000
H       -0.06060000      -2.00230000      -3.10330000
H        0.06540000      -3.82560000       0.08100000
H        0.11990000      -1.79330000       3.04000000
