21
Properties=species:S:1:pos:R:3 gdb_121587=T pbc="F F F"
C        0.09550000       1.49240000      -0.00440000
C       -0.03320000      -0.02490000       0.14540000
C       -1.46790000      -0.51000000      -0.05700000
N       -1.55310000      -1.94880000       0.07930000
C       -2.72750000      -2.62080000       0.08730000
N       -3.86380000      -2.02130000       0.02380000
C       -2.51940000      -4.13360000       0.17870000
C       -3.74550000      -5.01710000       0.24940000
O       -1.39620000      -4.58880000       0.18640000
H        1.12950000       1.81700000       0.14330000
H       -0.21840000       1.82030000      -1.00120000
H       -0.52720000       2.01670000       0.72820000
H        0.62180000      -0.52420000      -0.58120000
H        0.31230000      -0.33380000       1.13990000
H       -2.14060000      -0.04740000       0.67580000
H       -1.84050000      -0.19940000      -1.04460000
H       -0.72050000      -2.51710000       0.06160000
H       -4.62800000      -2.69020000       0.06340000
H       -4.36500000      -4.89000000      -0.64470000
H       -3.42800000      -6.05700000       0.32710000
H       -4.36330000      -4.75480000       1.11450000
