23
Properties=species:S:1:pos:R:3 gdb_104014=T pbc="F F F"
C        0.01570000       1.58920000       0.05720000
C       -0.00500000       0.05610000       0.05410000
C       -1.41160000      -0.55520000      -0.03340000
O       -2.19140000      -0.13600000       1.08940000
C       -2.15830000      -0.32180000      -1.39940000
C       -2.44500000      -1.78680000      -1.78650000
C       -2.89650000      -2.40570000      -0.43230000
C       -1.42280000      -2.09960000      -0.03460000
C       -1.06840000      -2.45490000      -1.50920000
H        1.04280000       1.96400000       0.09320000
H       -0.45550000       2.00510000      -0.84020000
H       -0.50240000       1.99670000       0.93250000
H        0.60360000      -0.31010000      -0.77940000
H        0.46410000      -0.31230000       0.97450000
H       -2.32080000       0.81510000       1.02420000
H       -3.07130000       0.26280000      -1.25150000
H       -1.53850000       0.18820000      -2.14390000
H       -2.99370000      -1.95900000      -2.71340000
H       -3.68480000      -1.90850000       0.13420000
H       -3.09010000      -3.47800000      -0.50960000
H       -0.93720000      -2.57980000       0.81570000
H       -1.08080000      -3.53360000      -1.68240000
H       -0.17510000      -2.01850000      -1.96510000
