19
Properties=species:S:1:pos:R:3 gdb_125248=T pbc="F F F"
C       -0.48470000       1.45120000       0.25110000
C       -0.08110000       0.04590000      -0.05470000
C       -0.36050000      -0.78160000      -1.12260000
C        0.30740000      -2.00100000      -0.84650000
C        0.34080000      -3.24060000      -1.69080000
C        0.97450000      -4.44160000      -0.99920000
O        0.92010000      -5.52700000      -1.91710000
N        0.95590000      -1.93590000       0.31410000
N        0.70660000      -0.68920000       0.77280000
H       -1.03020000       1.52200000       1.19930000
H        0.38170000       2.11940000       0.31910000
H       -1.13710000       1.83270000      -0.53690000
H       -0.96480000      -0.53850000      -1.98250000
H       -0.67780000      -3.50980000      -1.99590000
H        0.88930000      -3.04810000      -2.62210000
H        2.00860000      -4.20430000      -0.71340000
H        0.42760000      -4.66810000      -0.07230000
H        1.33850000      -6.28630000      -1.50200000
H        1.09790000      -0.40990000       1.65630000
