18
Properties=species:S:1:pos:R:3 gdb_12789=T pbc="F F F"
O        0.22590000       0.38160000       1.00240000
C       -0.14930000       0.32380000      -0.37380000
C       -1.49000000      -0.38130000      -0.41550000
C       -2.07920000      -0.93000000      -1.75970000
C       -2.19330000      -2.32330000      -1.11960000
C       -0.80930000      -2.79040000      -0.71960000
C       -1.54280000      -1.80320000       0.15020000
O       -1.88220000      -2.07960000       1.46120000
H        1.10060000       0.77610000       1.06450000
H       -0.22320000       1.33250000      -0.81000000
H        0.59660000      -0.23520000      -0.95960000
H       -2.23450000       0.23260000       0.10040000
H       -3.03630000      -0.47270000      -2.01690000
H       -1.41860000      -0.87460000      -2.63250000
H       -3.01860000      -3.01270000      -1.24550000
H       -0.77580000      -3.78600000      -0.28920000
H        0.06060000      -2.52610000      -1.31850000
H       -1.16710000      -1.72880000       2.00630000
