23
Properties=species:S:1:pos:R:3 gdb_109917=T pbc="F F F"
C        0.14280000       1.73890000      -0.70150000
O       -0.17810000       0.39090000      -0.44690000
C        0.60120000      -0.53380000      -1.17520000
C        2.02050000      -0.83520000      -0.58620000
C        2.14880000      -0.61180000       0.93030000
C        2.19250000      -2.28780000      -0.96950000
C        1.04790000      -2.86050000      -1.33980000
C       -0.12340000      -1.90710000      -1.29140000
C       -1.10930000      -2.21880000      -0.15220000
H        1.17230000       1.99030000      -0.40640000
H        0.02320000       1.98700000      -1.76800000
H       -0.54670000       2.35290000      -0.11660000
H        0.74660000      -0.15110000      -2.19770000
H        2.77400000      -0.20900000      -1.08180000
H        1.41940000      -1.20810000       1.48440000
H        3.14800000      -0.90220000       1.27200000
H        1.99440000       0.43770000       1.19580000
H        3.15070000      -2.79280000      -0.89940000
H        0.93120000      -3.90320000      -1.61720000
H       -0.69180000      -1.93560000      -2.23000000
H       -0.60780000      -2.24650000       0.81910000
H       -1.89390000      -1.46010000      -0.10640000
H       -1.57770000      -3.19520000      -0.31510000
