22
Properties=species:S:1:pos:R:3 gdb_83271=T pbc="F F F"
C       -0.42190000       1.39020000       0.30770000
C       -0.03570000      -0.04750000       0.04160000
C        0.56390000      -0.53700000      -1.24410000
C        0.93640000       0.40660000      -2.38330000
C        2.41770000       0.78330000      -2.34560000
O        2.63140000       1.71810000      -3.39500000
C        2.76160000       1.36140000      -0.97270000
C        2.50570000       0.32840000       0.14650000
N        1.33750000      -0.54250000       0.00460000
H        0.09350000       2.10940000      -0.33120000
H       -1.49840000       1.51770000       0.14970000
H       -0.21280000       1.65920000       1.34950000
H       -0.69560000      -0.74720000       0.55690000
H        0.28690000      -1.53800000      -1.57200000
H        0.70610000      -0.06750000      -3.34120000
H        0.36110000       1.33890000      -2.35130000
H        3.02250000      -0.12450000      -2.51430000
H        3.55340000       1.99300000      -3.36420000
H        3.81890000       1.65570000      -0.93790000
H        2.17560000       2.27610000      -0.82980000
H        3.37350000      -0.34230000       0.19030000
H        2.45470000       0.82780000       1.12060000
