19
Properties=species:S:1:pos:R:3 gdb_68303=T pbc="F F F"
C       -0.49190000       1.37870000      -0.08440000
C       -0.08920000      -0.06240000      -0.07710000
C        0.73300000      -0.87390000      -1.11430000
C        0.56070000      -1.72260000       0.16190000
O        0.87350000      -0.52130000       0.97060000
C       -0.94360000      -1.34150000       0.20770000
C       -1.66590000      -1.44220000       1.51560000
C       -3.13240000      -1.37830000       1.58960000
O       -2.45440000      -2.62740000       1.70340000
H        0.38820000       2.01960000      -0.19230000
H       -1.16950000       1.57780000      -0.92080000
H       -1.00340000       1.64480000       0.84550000
H        0.23170000      -1.20090000      -2.02910000
H        1.74410000      -0.50250000      -1.28550000
H        1.04240000      -2.65680000       0.44750000
H       -1.55900000      -1.70670000      -0.62040000
H       -1.08980000      -1.14140000       2.38750000
H       -3.61250000      -1.01880000       2.49900000
H       -3.71230000      -1.24250000       0.67670000
