18
Properties=species:S:1:pos:R:3 gdb_99247=T pbc="F F F"
N        0.04770000       1.29040000      -0.15660000
C        0.02760000      -0.01600000       0.24190000
O        0.96750000      -0.53460000       0.81440000
C       -1.26460000      -0.76030000      -0.08500000
C       -1.07580000      -2.27330000      -0.05990000
C       -2.36870000      -3.03260000       0.20100000
O       -3.36410000      -2.50790000       0.63590000
C       -2.30650000      -4.52400000      -0.11390000
O       -3.49120000      -5.15120000       0.29820000
H        0.81620000       1.86330000       0.15250000
H       -0.77710000       1.74780000      -0.50490000
H       -2.01760000      -0.49240000       0.66630000
H       -1.66450000      -0.42240000      -1.04720000
H       -0.60670000      -2.64090000      -0.98040000
H       -0.36630000      -2.51840000       0.74190000
H       -2.13130000      -4.61600000      -1.20120000
H       -1.40780000      -4.93510000       0.37790000
H       -3.41870000      -6.08800000       0.09410000
