19
Properties=species:S:1:pos:R:3 gdb_91238=T pbc="F F F"
C        0.37300000       1.51050000      -0.14260000
C       -0.01790000       0.03170000       0.00540000
C        0.38310000      -0.84260000      -1.20800000
C        1.72980000      -1.44470000      -0.83410000
O        2.86360000      -0.52360000      -1.01900000
C        3.04110000      -0.39750000       0.34580000
N        3.88640000       0.25390000       1.00410000
C        1.85770000      -1.29710000       0.69920000
N        0.61430000      -0.68200000       1.13490000
H        1.43500000       1.64030000      -0.36260000
H       -0.20000000       1.97320000      -0.95400000
H        0.14420000       2.06070000       0.77670000
H       -1.10450000      -0.01030000       0.14900000
H       -0.33520000      -1.65790000      -1.34040000
H        0.43200000      -0.27910000      -2.14280000
H        1.95590000      -2.40620000      -1.29570000
H        4.52770000       0.76340000       0.39270000
H        2.11490000      -2.17120000       1.30150000
H        0.73710000      -0.09580000       1.95300000
