18
Properties=species:S:1:pos:R:3 gdb_6710=T pbc="F F F"
C       -0.02890000       1.42110000      -0.13240000
C       -0.28840000      -0.08070000      -0.05810000
O        0.76460000      -0.77300000       0.61400000
C       -1.63630000      -0.40770000       0.61220000
N       -1.91120000      -1.83140000       0.78110000
C       -2.28370000      -2.51430000      -0.45390000
C       -2.60320000      -3.92210000      -0.19460000
N       -2.83710000      -5.03680000      -0.00320000
H        0.94760000       1.61910000      -0.58210000
H       -0.79460000       1.92630000      -0.73000000
H       -0.04290000       1.86850000       0.86980000
H       -0.27640000      -0.49590000      -1.07360000
H        0.91500000      -0.33170000       1.45830000
H       -1.64530000       0.05440000       1.60970000
H       -2.45940000       0.04880000       0.04870000
H       -1.07780000      -2.26830000       1.16540000
H       -3.18020000      -2.03210000      -0.86340000
H       -1.52240000      -2.49150000      -1.25310000
