20
Properties=species:S:1:pos:R:3 gdb_40769=T pbc="F F F"
C       -0.15190000       1.12700000      -0.43880000
C        1.21710000       0.97480000       0.13040000
N        0.29340000      -0.15060000       0.10040000
C       -0.23650000      -0.64800000       1.35180000
C       -0.84620000       0.24500000       2.49600000
C       -1.97750000      -0.81190000       2.67140000
C       -1.57720000      -1.38500000       1.31120000
C       -2.40910000      -1.67190000       0.14210000
O       -1.76570000      -2.71760000       0.88820000
H       -0.86160000       1.72740000       0.12530000
H       -0.30050000       1.14890000      -1.51490000
H        2.08480000       0.89720000      -0.51920000
H        1.40560000       1.45720000       1.08820000
H        0.52480000      -1.31040000       1.78010000
H       -0.20670000       0.43350000       3.35940000
H       -1.23830000       1.19770000       2.13370000
H       -1.76740000      -1.51900000       3.47870000
H       -2.99890000      -0.44180000       2.78230000
H       -3.49470000      -1.63650000       0.22970000
H       -2.00750000      -1.50440000      -0.85540000
