16
Properties=species:S:1:pos:R:3 gdb_589=T pbc="F F F"
C        0.06600000       1.51280000       0.08300000
C        0.12780000      -0.01320000      -0.01370000
C        0.50790000      -0.50980000      -1.41540000
C        0.57080000      -2.01460000      -1.49910000
C        1.54980000      -2.72350000      -2.33150000
O        1.71890000      -2.64130000      -0.91530000
H        1.03410000       1.96430000      -0.16100000
H       -0.67450000       1.92540000      -0.61150000
H       -0.20680000       1.83740000       1.09190000
H        0.85650000      -0.40490000       0.70560000
H       -0.84350000      -0.44000000       0.26970000
H       -0.22300000      -0.14420000      -2.15020000
H        1.48270000      -0.09780000      -1.70380000
H       -0.36520000      -2.53240000      -1.27640000
H        1.32020000      -3.71510000      -2.72000000
H        2.26460000      -2.15050000      -2.92140000
