19
Properties=species:S:1:pos:R:3 gdb_29268=T pbc="F F F"
C        0.69970000       1.25880000      -0.00140000
C        0.19090000      -0.14110000      -0.11660000
C       -0.74070000      -0.64290000      -0.98620000
N       -0.84870000      -1.98650000      -0.67620000
C        0.00960000      -2.24070000       0.35340000
N        0.64940000      -1.14670000       0.71120000
C        0.16660000      -3.57690000       0.95350000
C        1.53170000      -4.00550000       1.45640000
C        0.44480000      -3.69140000       2.44000000
H        0.22370000       1.91280000      -0.73720000
H        0.50580000       1.66860000       0.99600000
H        1.78320000       1.29930000      -0.15860000
H       -1.32160000      -0.18980000      -1.77220000
H       -1.44950000      -2.65480000      -1.12820000
H       -0.45650000      -4.34830000       0.51140000
H        1.82130000      -5.04030000       1.31100000
H        2.32680000      -3.27830000       1.34120000
H        0.51530000      -2.75480000       2.98050000
H       -0.02280000      -4.50740000       2.97980000
