23
Properties=species:S:1:pos:R:3 gdb_105512=T pbc="F F F"
C        0.07850000      -1.05110000       1.74570000
C        0.06310000      -0.37080000       0.37530000
O        1.10560000      -0.89090000      -0.45210000
C       -1.30190000      -0.42750000      -0.34100000
C       -2.40950000       0.20140000       0.49940000
O       -2.03570000       1.53600000       0.81680000
C       -1.30540000       0.12170000      -1.80210000
C       -2.10600000      -1.12860000      -2.25480000
C       -1.76590000      -1.81090000      -0.90160000
H        1.09950000      -1.05820000       2.13730000
H       -0.55690000      -0.52530000       2.46310000
H       -0.26980000      -2.09010000       1.68020000
H        0.31840000       0.68590000       0.50200000
H        1.04230000      -1.85160000      -0.43810000
H       -3.35190000       0.18220000      -0.07050000
H       -2.57210000      -0.39400000       1.41180000
H       -2.75550000       1.94540000       1.30490000
H       -1.76730000       1.10110000      -1.94480000
H       -0.29570000       0.13590000      -2.21500000
H       -3.17600000      -0.93370000      -2.36560000
H       -1.75990000      -1.63510000      -3.15870000
H       -0.94070000      -2.52290000      -0.99660000
H       -2.58190000      -2.30990000      -0.36960000
