18
Properties=species:S:1:pos:R:3 gdb_89700=T pbc="F F F"
O       -0.07260000       1.39740000      -0.01930000
C       -0.02760000      -0.01670000       0.01270000
C        0.50130000      -0.61100000       1.36430000
C       -0.79040000      -1.33010000       1.82670000
C       -1.23630000      -2.03340000       0.50230000
C       -1.46110000      -0.56720000       0.04080000
C       -1.89070000      -0.26670000       1.50470000
C       -0.75110000      -2.03160000       3.09010000
N       -0.72330000      -2.59540000       4.09960000
H        0.82990000       1.73110000      -0.02070000
H        0.53460000      -0.40560000      -0.84730000
H        1.33420000      -1.30740000       1.23930000
H        0.80200000       0.18330000       2.05190000
H       -0.49040000      -2.64200000      -0.01620000
H       -2.16840000      -2.58810000       0.61850000
H       -2.09510000      -0.31860000      -0.80800000
H       -2.89240000      -0.63180000       1.73560000
H       -1.74220000       0.74450000       1.88460000
