19
Properties=species:S:1:pos:R:3 gdb_119394=T pbc="F F F"
C       -0.37950000       1.42280000       0.39130000
O       -0.53240000       0.03880000       0.60240000
C       -0.87390000      -0.66160000      -0.57320000
C       -1.00160000      -2.11850000      -0.21660000
C       -2.21310000      -2.75870000       0.53510000
C       -1.63360000      -3.95340000      -0.27780000
O       -1.32580000      -2.99570000      -1.34840000
C       -0.25200000      -4.13450000       0.38280000
C        0.18110000      -2.87430000       0.42920000
H       -0.11650000       1.87230000       1.35170000
H        0.41980000       1.63870000      -0.33510000
H       -1.30950000       1.88450000       0.02420000
H       -1.82060000      -0.29150000      -0.99810000
H       -0.09690000      -0.54380000      -1.34760000
H       -2.19160000      -2.80170000       1.62500000
H       -3.17480000      -2.40950000       0.15010000
H       -2.21290000      -4.81830000      -0.59680000
H        0.20020000      -5.05630000       0.71750000
H        1.08930000      -2.43630000       0.81400000
