20
Properties=species:S:1:pos:R:3 gdb_108153=T pbc="F F F"
C       -0.15510000       1.46700000      -0.37840000
C       -0.03390000       0.05250000       0.20220000
C       -1.36230000      -0.65750000       0.31950000
C       -2.39410000      -0.20700000       1.38160000
C       -3.51890000      -1.18550000       1.09740000
C       -3.05190000      -2.17300000       0.30040000
C       -3.16580000      -1.88560000      -1.19710000
N       -1.75290000      -1.29460000      -1.06490000
C       -1.52890000      -2.10690000       0.16330000
H        0.82720000       1.94260000      -0.45600000
H       -0.59770000       1.43070000      -1.37790000
H       -0.78430000       2.10790000       0.24800000
H        0.63670000      -0.54470000      -0.42270000
H        0.41780000       0.09640000       1.20260000
H       -1.90650000      -0.23210000       2.36800000
H       -2.77720000       0.81150000       1.24850000
H       -4.53350000      -0.81140000       0.98680000
H       -3.07070000      -2.72650000      -1.89150000
H       -3.95660000      -1.20390000      -1.52280000
H       -0.79420000      -2.90390000       0.22070000
