20
Properties=species:S:1:pos:R:3 gdb_93009=T pbc="F F F"
C        0.00950000       1.53590000       0.07450000
C        0.01040000       0.02200000      -0.04270000
C        0.77070000      -0.51860000      -1.25330000
C        0.82130000      -2.03190000      -1.16790000
C       -0.12190000      -2.87780000      -1.99890000
C        1.34670000      -2.83210000      -2.33320000
N        1.13880000      -2.55350000       0.13250000
C        1.03660000      -1.77530000       1.12640000
O        0.60510000      -0.49130000       1.16980000
H        1.03360000       1.92070000       0.10230000
H       -0.50610000       1.98000000      -0.78230000
H       -0.50140000       1.85010000       0.98850000
H       -1.02290000      -0.35120000      -0.07480000
H        0.28930000      -0.18260000      -2.17730000
H        1.78830000      -0.10640000      -1.24310000
H       -0.50810000      -3.77830000      -1.53680000
H       -0.81860000      -2.36250000      -2.65230000
H        1.65830000      -2.29170000      -3.22110000
H        1.94610000      -3.70070000      -2.08800000
H        1.31780000      -2.10800000       2.12360000
