21
Properties=species:S:1:pos:R:3 gdb_58802=T pbc="F F F"
C       -0.04050000       1.45440000      -0.22150000
C        0.00090000      -0.05110000       0.08680000
C        0.91480000      -0.35940000       1.28200000
C       -1.38780000      -0.58270000       0.30540000
C       -2.36410000      -0.34110000       1.46910000
C       -3.02820000      -1.73430000       1.12940000
O       -4.37260000      -1.75480000       0.74240000
C       -1.99420000      -1.89300000       0.00220000
O       -2.22240000      -0.76230000      -0.86140000
H        0.96270000       1.83260000      -0.44120000
H       -0.68050000       1.65850000      -1.08450000
H       -0.43050000       2.01980000       0.63240000
H        0.39320000      -0.57130000      -0.79630000
H        0.57340000       0.15560000       2.18650000
H        0.94780000      -1.43250000       1.49560000
H        1.93600000      -0.02370000       1.07770000
H       -1.89450000      -0.33220000       2.45550000
H       -3.01540000       0.52970000       1.36200000
H       -2.90980000      -2.45860000       1.93890000
H       -4.42150000      -1.21840000      -0.05980000
H       -1.58780000      -2.78750000      -0.45800000
