17
Properties=species:S:1:pos:R:3 gdb_128366=T pbc="F F F"
C        0.04480000       1.39940000       0.07920000
N       -0.00040000      -0.05990000       0.09490000
C       -1.22580000      -0.65970000      -0.00440000
N       -2.36180000      -0.03260000       0.02150000
O       -3.34670000      -1.08410000      -0.00360000
C       -2.72790000      -2.30300000      -0.04460000
N       -1.36420000      -2.02110000      -0.11240000
N       -3.24710000      -3.44970000      -0.02470000
C       -4.69720000      -3.54020000       0.06110000
H        1.07310000       1.71690000       0.26150000
H       -0.30870000       1.82730000      -0.86730000
H       -0.59200000       1.78030000       0.88000000
H        0.71950000      -0.51110000      -0.45180000
H       -0.66750000      -2.71080000       0.11100000
H       -5.13390000      -2.81670000       0.76240000
H       -5.16710000      -3.37220000      -0.91750000
H       -4.96970000      -4.54720000       0.38840000
