21
Properties=species:S:1:pos:R:3 gdb_85869=T pbc="F F F"
C       -0.84370000       1.06590000      -0.06490000
C        0.13370000      -0.09890000      -0.01880000
C        1.50340000       0.02960000      -0.75780000
C        2.21930000      -0.63380000       0.46690000
C        2.50480000      -2.12210000       0.29790000
O        3.33700000       0.05060000       0.99890000
C        0.93810000      -0.35650000       1.26100000
C        0.84750000       0.28620000       2.56990000
O        0.51230000      -1.10140000       2.38590000
H       -0.35550000       2.00220000       0.22590000
H       -1.24920000       1.19880000      -1.07360000
H       -1.68890000       0.90030000       0.61220000
H       -0.37330000      -1.02370000      -0.31750000
H        1.59940000      -0.47140000      -1.72390000
H        1.81500000       1.07290000      -0.85260000
H        3.33470000      -2.27680000      -0.40330000
H        2.76640000      -2.56540000       1.26250000
H        1.63510000      -2.65510000      -0.09710000
H        4.13020000      -0.28170000       0.56560000
H        1.76020000       0.47490000       3.13010000
H        0.00570000       0.93860000       2.79720000
