17
Properties=species:S:1:pos:R:3 gdb_81953=T pbc="F F F"
O       -0.03210000       1.46840000      -0.08640000
C       -0.02220000       0.06710000       0.00170000
C       -1.38800000      -0.59940000      -0.03340000
C       -2.09680000      -0.62330000      -1.36190000
C       -1.31090000      -1.83350000      -0.93100000
C        0.10430000      -1.95850000      -1.47170000
O        0.20340000      -2.30260000      -2.82940000
C        0.66880000      -0.56660000      -1.20230000
O        1.42550000       0.01800000      -1.94100000
H        0.65740000       1.70510000      -0.72350000
H        0.51040000      -0.25900000       0.91370000
H       -1.97310000      -0.61620000       0.87780000
H       -3.17720000      -0.70340000      -1.34440000
H       -1.71470000      -0.01010000      -2.17200000
H       -1.84040000      -2.74070000      -0.66750000
H        0.66160000      -2.68130000      -0.84820000
H        0.87100000      -1.71410000      -3.21040000
