14
Properties=species:S:1:pos:R:3 gdb_130429=T pbc="F F F"
N        0.53180000       1.37600000      -0.27700000
C       -0.13020000       0.19780000       0.26840000
C        0.72630000      -0.48240000       1.28590000
N        2.01480000      -0.27660000       1.45230000
N        2.30480000      -1.13690000       2.44250000
C        3.62220000      -1.24630000       2.96860000
O        3.92450000      -1.99500000       3.84440000
N        1.23910000      -1.84130000       2.86580000
N        0.24420000      -1.44180000       2.14660000
H        1.41840000       1.11590000      -0.69720000
H       -0.03970000       1.77800000      -1.01210000
H       -1.05960000       0.50210000       0.76350000
H       -0.42160000      -0.56580000      -0.47560000
H        4.28520000      -0.54330000       2.44140000
