17
Properties=species:S:1:pos:R:3 gdb_127415=T pbc="F F F"
C       -0.12660000       1.52040000      -0.04880000
N        0.16640000       0.10200000       0.02420000
C        0.78080000      -0.55960000      -1.14540000
C        1.36560000      -1.89090000      -0.58420000
N        1.53090000      -1.50420000       0.80050000
N        2.02420000      -2.09660000       1.92690000
C        1.59940000      -1.25050000       2.85370000
N        0.83880000      -0.18680000       2.42200000
C        0.81050000      -0.41850000       1.12600000
H        0.75970000       2.12090000      -0.30980000
H       -0.90200000       1.70000000      -0.79910000
H       -0.49630000       1.85000000       0.92380000
H        0.04330000      -0.72750000      -1.93400000
H        1.59030000       0.06430000      -1.55540000
H        0.65970000      -2.72470000      -0.67930000
H        2.30860000      -2.16890000      -1.05910000
H        1.84720000      -1.39340000       3.89530000
