12
Properties=species:S:1:pos:R:3 gdb_354=T pbc="F F F"
C        0.01450000       1.44380000      -0.00990000
N       -0.07060000      -0.00130000       0.06220000
C       -1.28170000      -0.63310000       0.04280000
N       -2.39550000      -0.00610000       0.08940000
C       -1.18450000      -2.14280000       0.00020000
O       -2.15130000      -2.85710000      -0.00390000
H        1.05270000       1.75000000       0.13280000
H       -0.35090000       1.83230000      -0.96950000
H       -0.60400000       1.88190000       0.77740000
H        0.73730000      -0.53460000      -0.21380000
H       -3.14860000      -0.69620000       0.11380000
H       -0.15270000      -2.56390000      -0.02740000
