16
Properties=species:S:1:pos:R:3 gdb_64806=T pbc="F F F"
O        1.34960000       0.72140000       0.24980000
C        0.25660000      -0.10650000      -0.02750000
C        0.58150000      -1.31800000      -0.90220000
C        0.63180000      -1.00510000      -2.38080000
O        0.09530000      -1.64480000      -3.24830000
C        1.40330000       0.21150000      -2.74740000
N        1.99340000       1.17130000      -3.01050000
C       -0.69790000      -0.27820000       1.11600000
C       -1.11650000       0.52060000      -0.10120000
H        1.51790000       1.29020000      -0.51090000
H        1.56380000      -1.70070000      -0.59560000
H       -0.15210000      -2.11860000      -0.78100000
H       -1.14940000      -1.25010000       1.28040000
H       -0.45540000       0.27530000       2.01530000
H       -1.16660000       1.59840000       0.00110000
H       -1.85250000       0.09120000      -0.77310000
