18
Properties=species:S:1:pos:R:3 gdb_14363=T pbc="F F F"
C       -0.05990000       1.51800000       0.02510000
C        1.46280000       1.26240000       0.01490000
C        1.19660000       0.08480000       1.03260000
C        0.10030000      -0.04010000      -0.06780000
C       -0.89730000      -0.92970000      -0.76710000
C       -0.70080000      -0.39660000      -2.23780000
O        0.52850000       0.37480000      -2.31170000
C        1.20610000       0.18350000      -1.09120000
H       -0.48620000       1.90000000       0.95650000
H       -0.47310000       2.02240000      -0.84810000
H        2.26630000       1.99740000       0.07610000
H        1.94500000      -0.71160000       1.07780000
H        0.87150000       0.38810000       2.03000000
H       -0.61930000      -1.98600000      -0.69540000
H       -1.93410000      -0.82260000      -0.43820000
H       -0.64910000      -1.22230000      -2.95680000
H       -1.52190000       0.26400000      -2.53540000
H        1.98590000      -0.58440000      -1.18390000
