16
Properties=species:S:1:pos:R:3 gdb_101986=T pbc="F F F"
C       -0.37410000       1.35200000      -0.02790000
N        0.11100000      -0.00800000       0.03140000
C        0.81130000      -0.48890000       1.08000000
C        1.22040000      -1.93670000       0.87220000
O        0.92130000      -2.54780000      -0.12390000
N        1.06230000       0.24810000       2.10690000
C        1.80260000      -0.28390000       3.24410000
C        3.22380000      -0.53930000       2.95920000
N        4.33110000      -0.74900000       2.70140000
H        0.45210000       2.06570000       0.06360000
H       -0.88100000       1.50600000      -0.98180000
H       -1.07470000       1.55450000       0.78970000
H       -0.02920000      -0.64790000      -0.73430000
H        1.80950000      -2.40390000       1.67970000
H        1.75690000       0.46100000       4.04560000
H        1.37030000      -1.20380000       3.66480000
