19
Properties=species:S:1:pos:R:3 gdb_7817=T pbc="F F F"
C        0.01090000       1.56940000      -0.02130000
C        0.06090000       0.04060000      -0.00750000
C        0.72610000      -0.53570000      -1.26320000
C        0.96700000      -2.02220000      -1.05060000
O        1.72650000      -2.25610000       0.14150000
C        1.47880000      -1.42420000       1.19470000
C        2.23900000      -1.88240000       2.40520000
N        0.73250000      -0.39900000       1.21790000
H        1.02330000       1.98540000      -0.05830000
H       -0.54570000       1.93660000      -0.89000000
H       -0.47040000       1.93860000       0.88790000
H       -0.97520000      -0.32840000       0.03770000
H        0.10600000      -0.37940000      -2.15220000
H        1.68510000      -0.03210000      -1.43640000
H        0.01360000      -2.56170000      -0.96800000
H        1.54320000      -2.47320000      -1.86250000
H        3.31050000      -1.92360000       2.18430000
H        2.05850000      -1.19610000       3.23130000
H        1.92980000      -2.89370000       2.68860000
