21
Properties=species:S:1:pos:R:3 gdb_118823=T pbc="F F F"
C       -0.21640000       1.51310000       0.06380000
C       -0.08920000       0.01050000       0.24750000
O       -1.23350000      -0.60070000      -0.33890000
C       -1.34350000      -1.98170000      -0.13830000
C       -0.38120000      -2.82880000      -0.94360000
C       -1.81700000      -2.43750000       1.20450000
C       -2.77570000      -2.47110000       0.00750000
C       -3.90410000      -1.50930000      -0.01350000
O       -4.99240000      -1.76080000      -0.47180000
H        0.65300000       2.02210000       0.49020000
H       -0.28010000       1.76510000      -0.99830000
H       -1.11690000       1.88790000       0.55860000
H        0.83060000      -0.35540000      -0.23160000
H       -0.02960000      -0.25090000       1.31470000
H        0.65520000      -2.65430000      -0.63710000
H       -0.59190000      -3.89270000      -0.80700000
H       -0.46950000      -2.59140000      -2.00810000
H       -1.48310000      -3.38920000       1.60200000
H       -2.01070000      -1.67210000       1.94920000
H       -3.01270000      -3.43730000      -0.42440000
H       -3.67920000      -0.52080000       0.43860000
