21
Properties=species:S:1:pos:R:3 gdb_56821=T pbc="F F F"
C       -0.88510000       0.94240000      -1.49490000
C       -0.27460000      -0.21840000      -0.73690000
C        1.21800000      -0.46530000      -0.64200000
C        2.25700000       0.41650000      -1.30430000
C        0.43580000      -0.04920000       0.58980000
C        0.58850000       1.31460000       1.24370000
O       -0.63920000       1.77240000       1.81360000
C        1.66560000       1.29480000       2.24230000
C        2.52340000       1.24750000       3.08360000
H       -0.25650000       1.83600000      -1.48790000
H       -1.05220000       0.67190000      -2.54320000
H       -1.84900000       1.22300000      -1.05890000
H       -0.87800000      -1.12100000      -0.80080000
H        1.50440000      -1.51440000      -0.64450000
H        1.96130000       1.46700000      -1.35430000
H        3.20780000       0.37010000      -0.76290000
H        2.44170000       0.08460000      -2.33190000
H        0.27050000      -0.83280000       1.32640000
H        0.82910000       2.06970000       0.49020000
H       -0.85150000       1.18460000       2.54730000
H        3.28840000       1.22290000       3.81990000
