20
Properties=species:S:1:pos:R:3 gdb_39277=T pbc="F F F"
C       -0.03690000       1.44440000       0.04340000
N        1.24110000       0.74400000      -0.00130000
C        2.08870000       0.48120000       1.16090000
C        2.30300000      -1.05330000       1.21950000
C        0.98440000      -1.82760000       0.93040000
C       -0.19590000      -0.90780000       1.24780000
C       -0.00430000      -0.03820000       0.00810000
C        0.01580000      -1.07670000      -1.08900000
O        0.81830000      -2.11240000      -0.48040000
H       -0.36710000       1.89350000       0.98200000
H       -0.26870000       2.03580000      -0.83920000
H        3.04290000       1.00190000       1.03380000
H        1.65200000       0.84760000       2.10360000
H        3.04050000      -1.35930000       0.47200000
H        2.69360000      -1.33170000       2.20480000
H        0.97890000      -2.79300000       1.44200000
H       -1.15160000      -1.43830000       1.22040000
H       -0.11280000      -0.38130000       2.19830000
H       -0.97540000      -1.47670000      -1.34350000
H        0.51260000      -0.71540000      -1.99260000
