17
Properties=species:S:1:pos:R:3 gdb_7960=T pbc="F F F"
C        0.46800000       1.40760000      -0.23800000
C       -0.09180000       0.05060000       0.16730000
O       -0.01150000      -0.88060000      -0.93410000
C        1.03390000      -1.75040000      -0.77700000
N        1.34030000      -2.65800000      -1.59820000
C        1.73700000      -1.45580000       0.52750000
C        0.68410000      -0.65310000       1.30460000
O        1.18560000       0.30730000       2.21020000
H        1.52940000       1.34310000      -0.49400000
H       -0.07500000       1.78240000      -1.10960000
H        0.35900000       2.11910000       0.58340000
H       -1.15360000       0.14540000       0.41140000
H        0.71040000      -2.63640000      -2.40270000
H        2.07010000      -2.37360000       1.01340000
H        2.61560000      -0.82690000       0.34430000
H       -0.00060000      -1.34680000       1.81420000
H        1.60130000      -0.15620000       2.94330000
