13
Properties=species:S:1:pos:R:3 gdb_9204=T pbc="F F F"
O        0.06560000       1.32480000       0.00700000
C       -0.05110000      -0.07200000       0.00280000
C       -1.52530000      -0.43090000       0.01450000
O       -2.45550000       0.32290000       0.02680000
O       -1.65120000      -1.78570000       0.00890000
C       -3.00630000      -2.24410000       0.01940000
C       -2.98900000      -3.70530000       0.01080000
N       -3.01220000      -4.85930000       0.00430000
H        1.00160000       1.54520000      -0.00030000
H        0.39530000      -0.54420000      -0.88660000
H        0.41070000      -0.55060000       0.88080000
H       -3.52830000      -1.87710000       0.90910000
H       -3.54530000      -1.86700000      -0.85570000
