20
Properties=species:S:1:pos:R:3 gdb_110590=T pbc="F F F"
C        0.01800000       1.38180000      -0.25930000
O       -0.04720000       0.12490000       0.38070000
C       -1.27990000      -0.51630000       0.22530000
C       -1.53310000      -1.36550000      -1.02910000
C       -0.59860000      -2.51930000      -0.56300000
C       -1.75410000      -3.49280000      -0.75380000
N       -2.50990000      -2.27220000      -0.23080000
C       -1.30690000      -1.96080000       0.72230000
C       -1.24700000      -2.46490000       2.13180000
H        0.99910000       1.80820000      -0.03800000
H       -0.09320000       1.29540000      -1.35030000
H       -0.75990000       2.06560000       0.11350000
H       -2.12150000       0.11840000       0.54320000
H       -1.77560000      -1.07850000      -2.05350000
H        0.47370000      -2.63530000      -0.74210000
H       -2.03480000      -3.76700000      -1.77620000
H       -1.82170000      -4.36620000      -0.09690000
H       -1.30670000      -3.55720000       2.17200000
H       -0.30680000      -2.15650000       2.60010000
H       -2.07450000      -2.05530000       2.72000000
