21
Properties=species:S:1:pos:R:3 gdb_40924=T pbc="F F F"
C        0.18720000       1.46910000      -0.36380000
C        1.63050000       1.42530000       0.16860000
C        1.22140000       0.06690000       0.77480000
C        1.90590000      -1.28880000       0.45370000
C        1.91010000      -1.66210000       1.96110000
C        3.19400000      -1.26550000       2.73300000
C        2.60230000       0.15260000       2.99630000
C        1.28020000      -0.25690000       2.28640000
O       -0.11740000       0.19460000       0.23610000
H       -0.44590000       2.27170000       0.03380000
H        0.07980000       1.44340000      -1.45510000
H        2.41330000       1.37830000      -0.59120000
H        1.88560000       2.19770000       0.89720000
H        1.25160000      -1.91320000      -0.15960000
H        2.88920000      -1.22920000      -0.02480000
H        1.43720000      -2.60790000       2.22610000
H        3.33840000      -1.83980000       3.65170000
H        4.12450000      -1.30800000       2.15860000
H        2.47580000       0.38750000       4.05540000
H        3.13880000       0.98600000       2.53230000
H        0.34400000      -0.11010000       2.82640000
