19
Properties=species:S:1:pos:R:3 gdb_111702=T pbc="F F F"
C       -0.21900000       1.44710000      -0.11750000
C        0.18000000      -0.01810000       0.09410000
C        0.80420000      -0.62470000      -1.14480000
C        0.98090000      -2.10330000      -1.41130000
C       -0.25330000      -2.87730000      -0.97020000
O       -1.13780000      -1.97290000      -1.68380000
C       -0.00790000      -1.27640000      -2.24090000
C       -0.03860000      -0.88550000      -3.60590000
C       -0.06520000      -0.54090000      -4.75860000
H        0.64760000       2.06180000      -0.38480000
H       -0.95350000       1.53890000      -0.92380000
H       -0.66020000       1.86960000       0.79030000
H        0.89050000      -0.09550000       0.92690000
H       -0.70500000      -0.59600000       0.37570000
H        1.63400000      -0.05280000      -1.55750000
H        1.92320000      -2.53920000      -1.71430000
H       -0.30890000      -3.88250000      -1.40180000
H       -0.47800000      -2.92070000       0.10130000
H       -0.09190000      -0.24010000      -5.77660000
