18
Properties=species:S:1:pos:R:3 gdb_35274=T pbc="F F F"
C       -0.34510000      -1.15440000       0.44240000
C       -0.14510000       0.00910000       0.21410000
C        0.07520000       1.39450000      -0.09950000
N        0.72850000       2.23970000       0.93170000
C        1.44090000       1.96810000      -0.32120000
C        2.70100000       1.13930000      -0.21280000
C        3.86360000       1.97700000       0.26350000
C        5.22730000       1.79090000      -0.24290000
O        4.42530000       2.88360000      -0.69520000
H       -0.52170000      -2.17940000       0.65590000
H       -0.72620000       1.85250000      -0.67570000
H        0.31270000       3.16750000       0.91710000
H        1.49470000       2.77400000      -1.05130000
H        2.53040000       0.31430000       0.48630000
H        2.94040000       0.70740000      -1.19130000
H        3.74080000       2.40920000       1.25740000
H        6.08040000       2.06100000       0.37800000
H        5.42170000       1.01610000      -0.98400000
