16
Properties=species:S:1:pos:R:3 gdb_24026=T pbc="F F F"
C       -0.24480000      -1.04470000      -0.82590000
C       -0.08220000      -0.00110000      -0.25270000
C        0.11360000       1.27240000       0.42990000
C        1.47160000       1.91970000       0.19930000
C        1.98620000       2.80610000       1.14890000
N        3.14380000       3.45560000       1.02580000
C        3.85340000       3.23360000      -0.08410000
C        3.44310000       2.36670000      -1.09210000
C        2.23250000       1.69840000      -0.94620000
H       -0.39290000      -1.97290000      -1.32000000
H       -0.67500000       1.96880000       0.11020000
H       -0.03830000       1.13550000       1.50770000
H        1.42770000       2.99720000       2.06460000
H        4.79500000       3.77110000      -0.16750000
H        4.06130000       2.21580000      -1.97030000
H        1.88170000       1.00510000      -1.70330000
