18
Properties=species:S:1:pos:R:3 gdb_94918=T pbc="F F F"
O        0.00310000       1.43130000       0.03690000
C        0.02730000       0.01730000      -0.05420000
C        0.83070000      -0.69970000       1.05810000
C        0.00790000      -1.96970000       1.37040000
N       -1.37630000      -1.77440000       0.87530000
C       -2.06000000      -0.56740000       1.41520000
C       -1.62600000       0.12980000       2.59180000
C       -1.35260000       0.67640000       3.62850000
C       -1.37830000      -0.54000000       0.08130000
H        0.89730000       1.75500000      -0.10990000
H        0.40380000      -0.28850000      -1.04350000
H        1.84990000      -0.93920000       0.74190000
H        0.88720000      -0.03730000       1.92290000
H        0.40290000      -2.84030000       0.83770000
H       -0.00900000      -2.21150000       2.43670000
H       -3.14160000      -0.68310000       1.37570000
H       -1.09540000       1.18170000       4.52620000
H       -2.01000000      -0.52760000      -0.80280000
