18
Properties=species:S:1:pos:R:3 gdb_99054=T pbc="F F F"
C       -0.09890000       1.56020000      -0.03020000
C       -0.17460000       0.06750000       0.27830000
C        0.89990000      -0.41590000       1.23360000
O        1.67000000       0.33140000       1.78880000
C        0.99030000      -1.93220000       1.44560000
C        1.48680000      -2.25920000       2.86220000
O        0.51700000      -1.96800000       3.85130000
C        1.93950000      -3.66040000       2.95290000
N        2.25530000      -4.77000000       3.02040000
H        0.85070000       1.81260000      -0.50930000
H       -0.91220000       1.85770000      -0.69740000
H       -0.16710000       2.14890000       0.88750000
H       -1.14180000      -0.19710000       0.73070000
H       -0.11740000      -0.54070000      -0.63540000
H        0.03090000      -2.42350000       1.25080000
H        1.69780000      -2.32110000       0.70140000
H        2.33160000      -1.59720000       3.07710000
H       -0.19320000      -2.61650000       3.78220000
