16
Properties=species:S:1:pos:R:3 gdb_61722=T pbc="F F F"
N       -0.35880000       0.14710000       0.78580000
C       -0.57520000      -0.75090000      -0.21250000
N        0.56860000      -1.45710000      -0.64550000
C        1.82510000      -1.45890000      -0.11640000
O        2.20220000      -0.81140000       0.84190000
N       -1.65870000      -1.01940000      -0.83570000
C       -2.85490000      -0.31060000      -0.45530000
C       -4.02110000      -0.73110000      -1.34120000
O       -5.15440000      -0.36430000      -1.17840000
H        0.54070000       0.12540000       1.25070000
H       -1.15570000       0.52510000       1.26640000
H        0.37120000      -2.06130000      -1.43010000
H        2.49590000      -2.13780000      -0.67200000
H       -3.16190000      -0.49330000       0.58970000
H       -2.75590000       0.78550000      -0.55310000
H       -3.72500000      -1.41480000      -2.16740000
