17
Properties=species:S:1:pos:R:3 gdb_99927=T pbc="F F F"
O        0.04610000       1.42850000       0.16700000
C        0.09940000       0.02600000      -0.02840000
C       -1.32250000      -0.57590000       0.07820000
O       -1.91800000      -0.13920000       1.28040000
C       -2.10820000      -0.06370000      -1.08080000
N       -2.66580000       0.39080000      -1.98570000
C       -1.29430000      -2.09880000       0.05930000
C       -1.01950000      -2.83670000       1.31630000
N       -2.36190000      -2.86030000       0.70880000
H       -0.30790000       1.83350000      -0.63430000
H        0.56730000      -0.24750000      -0.98200000
H        0.69640000      -0.38100000       0.79130000
H       -1.63100000       0.77850000       1.39930000
H       -0.96180000      -2.51090000      -0.89050000
H       -0.47850000      -3.77740000       1.27700000
H       -0.87970000      -2.25230000       2.21990000
H       -2.96230000      -2.21540000       1.21910000
