15
Properties=species:S:1:pos:R:3 gdb_35072=T pbc="F F F"
C       -0.08110000      -1.23860000      -0.03750000
C       -0.06590000      -0.03930000       0.02990000
C       -0.00950000       1.41440000       0.06430000
N       -0.50740000       1.89650000       1.40080000
C        0.26090000       2.86830000       1.68940000
N        1.28630000       2.60460000       2.71790000
C        2.12880000       2.52490000       1.40040000
C        1.42210000       2.02200000       0.06640000
C        1.25100000       3.40060000       0.59900000
H       -0.10320000      -2.29930000      -0.08450000
H       -0.56650000       1.81780000      -0.79580000
H        1.62430000       3.48750000       3.11840000
H        3.21000000       2.50020000       1.49610000
H        2.10830000       1.80230000      -0.74790000
H        1.36430000       4.37810000       0.14990000
