16
Properties=species:S:1:pos:R:3 gdb_36591=T pbc="F F F"
N        0.03890000      -1.17750000      -0.01250000
C        0.01120000      -0.02420000      -0.07540000
C        0.01030000       1.43380000      -0.15380000
C        1.38490000       2.03050000       0.22050000
C        1.40930000       3.54570000       0.08820000
C        2.68650000       4.23450000      -0.26880000
N        1.59130000       4.17380000      -1.23900000
C        0.46500000       4.23580000       0.94710000
N       -0.28970000       4.74300000       1.66090000
H       -0.27220000       1.73090000      -1.17020000
H       -0.76350000       1.82640000       0.51510000
H        1.63580000       1.74430000       1.24680000
H        2.16050000       1.61020000      -0.42810000
H        2.88990000       5.22230000       0.13120000
H        3.55880000       3.60130000      -0.40780000
H        1.76610000       3.44860000      -1.93170000
