16
Properties=species:S:1:pos:R:3 gdb_98644=T pbc="F F F"
C       -0.58020000       1.41500000       0.14280000
O       -0.37880000       0.00060000       0.29240000
C        0.83800000      -0.36190000       0.73250000
O        1.72470000       0.40040000       1.01200000
C        0.95340000      -1.87490000       0.78630000
C        2.05470000      -2.48020000      -0.12230000
C        2.69330000      -2.86840000       1.19460000
N        3.73080000      -3.48000000       1.52780000
O        1.68800000      -2.30690000       1.96540000
H        0.14240000       1.83210000      -0.56270000
H       -1.59630000       1.53110000      -0.23290000
H       -0.46520000       1.91920000       1.10510000
H       -0.02710000      -2.34960000       0.73560000
H        1.74350000      -3.31310000      -0.75300000
H        2.62830000      -1.75800000      -0.70420000
H        3.82250000      -3.54400000       2.54280000
