16
Properties=species:S:1:pos:R:3 gdb_8696=T pbc="F F F"
N       -0.20870000       1.39870000       0.24750000
C        0.07830000      -0.00440000      -0.05590000
C        0.88810000      -0.59050000       1.12380000
O        0.24000000      -0.27570000       2.33820000
C        0.98820000      -2.12270000       1.06910000
O        1.66650000      -2.63570000       2.18680000
C        2.24700000       0.01700000       1.10440000
N        3.27510000       0.54230000       1.05040000
H        0.59220000       1.98430000       0.03160000
H       -0.99250000       1.73860000      -0.29650000
H       -0.87140000      -0.54650000      -0.10010000
H        0.61490000      -0.17160000      -1.00000000
H       -0.12550000       0.61600000       2.19870000
H       -0.04060000      -2.50890000       0.99530000
H        1.54290000      -2.43580000       0.17940000
H        1.23740000      -2.26190000       2.96610000
