19
Properties=species:S:1:pos:R:3 gdb_65101=T pbc="F F F"
C        0.00270000       1.56310000      -0.16370000
C       -0.00500000       0.05520000      -0.04140000
C        1.18140000      -0.70760000      -0.46860000
O        0.93270000      -0.47160000       0.91890000
C       -1.33000000      -0.62620000      -0.02820000
C       -2.59090000      -0.13360000      -0.71930000
C       -2.60520000      -0.37320000       0.75750000
O       -2.79760000      -1.75370000       1.05230000
C       -1.54970000      -2.08340000       0.38160000
H        1.02210000       1.93760000      -0.04770000
H       -0.37810000       1.88540000      -1.13770000
H       -0.61740000       2.02090000       0.61450000
H        1.07480000      -1.74230000      -0.79360000
H        2.03850000      -0.18190000      -0.88880000
H       -2.57360000       0.90830000      -1.02200000
H       -3.15060000      -0.79470000      -1.37600000
H       -2.87320000       0.35490000       1.51460000
H       -1.68970000      -2.82430000      -0.41460000
H       -0.80480000      -2.43030000       1.10380000
