18
Properties=species:S:1:pos:R:3 gdb_26251=T pbc="F F F"
C        1.07350000       0.79920000       0.52290000
N       -0.12710000       0.29680000      -0.12780000
C       -1.05300000      -0.33000000       0.81620000
C        0.12890000      -0.44590000      -1.28570000
C        1.24020000      -1.03930000      -1.81620000
N        0.95510000      -1.60060000      -3.06100000
C       -0.30530000      -1.34860000      -3.25240000
O       -1.05300000      -1.69930000      -4.31560000
N       -0.88020000      -0.66060000      -2.22920000
H        1.68160000       0.00110000       0.98370000
H        1.69150000       1.32490000      -0.20860000
H        0.78700000       1.50080000       1.31230000
H       -1.35520000       0.40450000       1.56920000
H       -1.95040000      -0.67070000       0.29430000
H       -0.60880000      -1.19850000       1.33190000
H        2.22940000      -1.10000000      -1.39240000
H       -0.46000000      -2.17750000      -4.90900000
H       -1.80410000      -0.26390000      -2.21930000
