20
Properties=species:S:1:pos:R:3 gdb_70619=T pbc="F F F"
C       -0.45760000       1.34670000       0.09050000
C       -0.01140000      -0.08860000       0.02580000
N       -0.33690000      -1.03860000       1.12240000
C        1.07470000      -0.67690000       0.85620000
C        1.81490000      -1.74210000       0.06640000
C        0.85180000      -2.08030000      -1.10000000
C        0.02330000      -0.81400000      -1.30020000
C       -0.95660000      -0.63710000      -2.37230000
O        0.32390000       0.00510000      -2.44270000
H        0.03870000       1.93540000      -0.68530000
H       -1.53980000       1.43440000      -0.06220000
H       -0.22250000       1.78450000       1.06580000
H       -0.67050000      -0.50010000       1.91930000
H        1.60480000      -0.07480000       1.58800000
H        2.75370000      -1.32140000      -0.31120000
H        2.06060000      -2.62080000       0.67020000
H        1.36980000      -2.35330000      -2.02160000
H        0.19210000      -2.90360000      -0.81630000
H       -1.11530000      -1.43940000      -3.09230000
H       -1.80670000       0.03010000      -2.23560000
