27
Properties=species:S:1:pos:R:3 gdb_58105=T pbc="F F F"
C        0.13330000       1.53150000      -0.00070000
C       -0.03430000       0.00530000       0.08880000
C        0.75530000      -0.52030000       1.29950000
C       -1.52400000      -0.48450000       0.04420000
C       -2.33670000       0.06290000       1.23150000
C       -2.18770000      -0.00530000      -1.26600000
C       -1.51990000      -2.02180000      -0.00120000
C       -1.70700000      -2.93230000       1.18730000
C       -2.76980000      -2.85810000       0.11960000
H        1.19760000       1.78780000      -0.03070000
H       -0.32810000       1.95530000      -0.89620000
H       -0.29420000       2.03820000       0.87120000
H        0.43670000      -0.42000000      -0.80990000
H        0.38420000      -0.09600000       2.23890000
H        0.70860000      -1.60810000       1.38180000
H        1.80900000      -0.23460000       1.21250000
H       -2.39990000       1.15380000       1.18600000
H       -3.36450000      -0.31380000       1.21620000
H       -1.89960000      -0.20290000       2.19750000
H       -1.60980000      -0.32390000      -2.14120000
H       -3.19170000      -0.43010000      -1.36100000
H       -2.28520000       1.08320000      -1.30540000
H       -0.81490000      -2.39640000      -0.74160000
H       -1.09490000      -3.82580000       1.25240000
H       -1.93760000      -2.48910000       2.14910000
H       -3.70180000      -2.36590000       0.37670000
H       -2.89160000      -3.69880000      -0.55480000
