19
Properties=species:S:1:pos:R:3 gdb_92135=T pbc="F F F"
C        0.30340000       1.51210000      -0.05110000
C       -0.04980000       0.03050000       0.04030000
O        0.36640000      -0.60200000      -1.18670000
C        1.19770000      -1.72070000      -0.99910000
C        0.49960000      -2.77550000      -0.11850000
C        0.72310000      -2.15970000       1.25180000
C        1.93350000      -1.27790000       1.06740000
O        2.36620000      -1.35750000      -0.27550000
C        0.58210000      -0.64330000       1.25220000
H        1.38870000       1.64120000      -0.08870000
H       -0.12840000       1.94380000      -0.95810000
H       -0.08940000       2.05850000       0.81310000
H       -1.14400000      -0.07200000       0.10520000
H        1.49950000      -2.05170000      -1.99280000
H       -0.54840000      -2.88650000      -0.40650000
H        0.99740000      -3.74720000      -0.19710000
H        0.55000000      -2.72900000       2.15640000
H        2.74870000      -1.17340000       1.77140000
H        0.37300000      -0.16390000       2.20330000
