18
Properties=species:S:1:pos:R:3 gdb_93180=T pbc="F F F"
C       -0.15360000       1.52020000       0.02180000
C        0.03010000       0.00490000      -0.01190000
C        0.72840000      -0.46330000      -1.28730000
N        0.99220000      -1.88800000      -1.19380000
C        1.65660000      -2.39530000      -0.09590000
N        2.28240000      -3.50270000      -0.13800000
C        1.55420000      -1.58430000       1.19490000
O        2.10560000      -1.96550000       2.21010000
N        0.83580000      -0.42800000       1.12760000
H        0.81170000       2.03200000      -0.03930000
H       -0.77750000       1.84750000      -0.81490000
H       -0.64930000       1.83270000       0.94660000
H       -0.95810000      -0.47800000       0.02740000
H        0.07360000      -0.28260000      -2.14410000
H        1.64680000       0.12950000      -1.43410000
H        1.21770000      -2.37330000      -2.05130000
H        2.63880000      -3.69380000       0.80090000
H        0.71260000       0.04270000       2.01380000
