13
Properties=species:S:1:pos:R:3 gdb_1118=T pbc="F F F"
N        0.41650000       0.55540000      -0.46510000
C       -0.51970000       0.42810000       0.50840000
O       -0.97910000       1.35000000       1.15280000
C       -0.92510000      -1.02700000       0.81470000
C       -1.15920000      -1.90810000      -0.40780000
N       -2.30290000      -2.63850000      -0.38490000
O       -0.36790000      -1.97400000      -1.33760000
H        0.64980000       1.48880000      -0.76340000
H        0.58220000      -0.23400000      -1.07830000
H       -0.10140000      -1.48410000       1.37680000
H       -1.79300000      -0.98010000       1.47330000
H       -2.97800000      -2.56080000       0.35450000
H       -2.50440000      -3.23670000      -1.16990000
