15
Properties=species:S:1:pos:R:3 gdb_131216=T pbc="F F F"
O        0.48890000       1.25100000       0.10390000
C        0.20430000      -0.06320000      -0.01340000
C        0.61060000      -1.05960000      -0.87590000
C       -0.08060000      -2.20790000      -0.41490000
C       -0.06290000      -3.59860000      -0.99540000
C        1.26910000      -4.06280000      -1.37300000
C        2.36320000      -4.43780000      -1.69880000
N       -0.84460000      -1.94800000       0.63790000
N       -0.65760000      -0.61950000       0.86450000
H        1.11610000       1.49310000      -0.58440000
H        1.30500000      -0.98350000      -1.69610000
H       -0.50810000      -4.27620000      -0.25860000
H       -0.71450000      -3.63780000      -1.87970000
H        3.33000000      -4.77750000      -1.97630000
H       -1.11830000      -0.16610000       1.63470000
