20
Properties=species:S:1:pos:R:3 gdb_6863=T pbc="F F F"
C        0.00710000       1.52080000       0.01050000
C       -0.03090000      -0.01140000       0.00250000
C       -1.48120000      -0.52020000       0.00640000
C        0.71620000      -0.54850000      -1.23610000
O        0.86980000      -1.96100000      -1.17930000
C        1.55470000      -2.34330000      -0.01700000
O        0.88040000      -1.97340000       1.15540000
C        0.72730000      -0.56160000       1.22850000
H        1.03460000       1.90170000       0.00790000
H       -0.50360000       1.92940000      -0.86840000
H       -0.49550000       1.92000000       0.89830000
H       -2.02320000      -0.15870000      -0.87430000
H       -1.50800000      -1.61140000       0.00080000
H       -2.01520000      -0.16790000       0.89560000
H        0.16690000      -0.33150000      -2.15730000
H        1.70840000      -0.06970000      -1.30740000
H        1.61820000      -3.43320000      -0.02310000
H        2.56990000      -1.89830000      -0.01930000
H        1.72010000      -0.08360000       1.29610000
H        0.18640000      -0.35450000       2.15690000
