15
Properties=species:S:1:pos:R:3 gdb_16328=T pbc="F F F"
O        0.09280000       1.37640000       0.56280000
C        0.06790000       0.11570000      -0.08510000
C       -1.30150000      -0.49160000      -0.10160000
N       -1.97370000      -1.03860000       1.12810000
C       -1.82810000      -1.90600000      -0.04450000
C       -3.03080000      -1.57880000      -0.94430000
C       -2.44140000      -0.14100000      -1.03340000
O       -2.65980000       0.81070000      -1.72730000
H       -0.49190000       1.96390000       0.07090000
H        0.44170000       0.18800000      -1.11800000
H        0.75980000      -0.52920000       0.46920000
H       -1.21580000      -1.24350000       1.78150000
H       -1.25200000      -2.82180000      -0.02130000
H       -3.01510000      -2.05940000      -1.92650000
H       -4.01310000      -1.69070000      -0.48170000
