17
Properties=species:S:1:pos:R:3 gdb_68756=T pbc="F F F"
C       -0.07340000       1.49850000      -0.03760000
C        0.06600000       0.00780000       0.00980000
C        1.35200000      -0.71450000      -0.27040000
C        0.73920000      -0.77220000       1.12910000
O        1.41580000      -0.23920000       2.20840000
C       -0.18630000      -1.89550000       1.40150000
O       -0.18390000      -2.55190000       2.41750000
C       -1.20390000      -1.93080000       0.26410000
O       -1.10390000      -0.68190000      -0.40770000
H        0.82360000       1.97430000       0.36600000
H       -0.21730000       1.83890000      -1.06790000
H       -0.93480000       1.81930000       0.55510000
H        1.35850000      -1.59330000      -0.90720000
H        2.25060000      -0.10740000      -0.30650000
H        1.25280000      -0.85160000       2.94190000
H       -0.99900000      -2.77280000      -0.41340000
H       -2.21530000      -2.05550000       0.66280000
