18
Properties=species:S:1:pos:R:3 gdb_98026=T pbc="F F F"
C        0.04660000       1.53140000      -0.12390000
C       -0.07190000       0.00980000      -0.13410000
C       -1.48470000      -0.48340000       0.13930000
O       -2.42060000       0.26430000       0.33840000
C       -1.64990000      -1.92290000       0.14710000
C       -1.79310000      -3.12410000       0.16030000
C       -1.99350000      -4.53990000       0.15660000
C       -2.90750000      -5.14760000       1.17880000
N       -3.31940000      -5.09460000      -0.21990000
H        1.07680000       1.83680000      -0.32630000
H       -0.60330000       1.97880000      -0.88000000
H       -0.25280000       1.94010000       0.84450000
H        0.24520000      -0.41400000      -1.09670000
H        0.59010000      -0.45260000       0.61060000
H       -1.16020000      -5.13690000      -0.20340000
H       -2.67240000      -6.13940000       1.55380000
H       -3.36990000      -4.47570000       1.89520000
H       -3.97040000      -4.32520000      -0.36080000
