23
Properties=species:S:1:pos:R:3 gdb_39687=T pbc="F F F"
C       -0.02460000       1.50210000      -0.10650000
O        1.33110000       1.68800000       0.34700000
C        1.48660000       0.27720000       0.59940000
C        0.09310000      -0.03650000       0.00470000
C       -0.91160000      -0.77700000       0.87080000
C       -2.33600000      -0.84490000       0.28780000
C       -3.04070000      -1.95210000       1.10400000
C       -1.90250000      -2.87630000       1.63370000
C       -0.58510000      -2.26420000       1.10550000
H       -0.75220000       1.95520000       0.58210000
H       -0.18310000       1.91610000      -1.10940000
H        2.35470000      -0.14100000       0.07600000
H        1.58350000       0.06180000       1.67320000
H        0.16060000      -0.51870000      -0.97630000
H       -0.96180000      -0.27490000       1.84960000
H       -2.86350000       0.11300000       0.32690000
H       -2.27380000      -1.13370000      -0.76980000
H       -3.59390000      -1.51400000       1.94050000
H       -3.77110000      -2.49720000       0.49990000
H       -1.90360000      -2.89060000       2.72800000
H       -2.02490000      -3.91330000       1.30930000
H       -0.31060000      -2.72330000       0.14650000
H        0.25780000      -2.41780000       1.78600000
