14
Properties=species:S:1:pos:R:3 gdb_14314=T pbc="F F F"
N       -0.09610000       1.28770000       0.09900000
C       -0.04970000       0.03440000      -0.05190000
O        1.14400000      -0.67960000      -0.27040000
C        0.77970000      -2.01700000      -0.53580000
C        0.91000000      -3.29070000       0.39100000
N       -0.59190000      -3.46400000       0.31530000
C       -0.65280000      -2.12420000      -0.19790000
C       -1.17190000      -0.92370000       0.07290000
H        0.83960000       1.69230000       0.05210000
H        1.06010000      -2.27960000      -1.56270000
H        1.50420000      -4.11750000      -0.00510000
H        1.20200000      -3.05800000       1.41680000
H       -0.89740000      -4.20360000      -0.30880000
H       -2.12670000      -0.63570000       0.48350000
