21
Properties=species:S:1:pos:R:3 gdb_85984=T pbc="F F F"
O       -0.07120000       1.44100000       0.00720000
C        0.06110000       0.01690000       0.00650000
C        0.19640000      -0.55740000       1.44150000
C       -1.36870000      -0.62290000       1.50510000
O       -1.92180000       0.56000000       2.05400000
C       -1.35820000      -0.58580000      -0.06050000
C       -1.99900000      -1.80880000       2.18430000
C       -2.37610000      -1.75280000       3.64380000
C       -3.45230000      -1.78470000       2.58740000
H        0.76690000       1.81510000       0.30030000
H        0.79230000      -0.30130000      -0.74580000
H        0.65070000      -1.55270000       1.44000000
H        0.68940000       0.06820000       2.19140000
H       -1.53460000       1.29610000       1.56160000
H       -2.12430000       0.02330000      -0.54520000
H       -1.35070000      -1.58860000      -0.49550000
H       -1.61450000      -2.75800000       1.82120000
H       -2.21410000      -2.63900000       4.24760000
H       -2.21760000      -0.81190000       4.15620000
H       -3.99530000      -0.86440000       2.41060000
H       -4.03200000      -2.69280000       2.46320000
