11
Properties=species:S:1:pos:R:3 gdb_3547=T pbc="F F F"
O        0.03050000       0.06510000      -0.02780000
C       -0.00370000       1.25660000       0.06850000
C       -1.08610000       2.29390000       0.04370000
C       -0.40870000       3.53750000       0.62790000
O        0.86500000       3.16180000       1.15850000
C        1.05160000       2.38910000      -0.06060000
C       -0.09410000       3.19820000      -0.77390000
H       -2.15390000       2.18660000      -0.08120000
H       -0.95630000       4.35260000       1.08210000
H        2.08510000       2.23720000      -0.35720000
H       -0.22270000       3.64860000      -1.74600000
