17
Properties=species:S:1:pos:R:3 gdb_67630=T pbc="F F F"
C       -0.10640000       1.50190000       0.00470000
C       -0.00110000       0.00870000      -0.03620000
C        0.92690000      -0.84380000      -0.93250000
C        1.10220000      -2.11240000      -0.12010000
O        0.81830000      -1.91020000       1.23840000
C       -0.18920000      -0.93940000       1.15350000
C       -1.04610000      -1.09760000      -0.08900000
O       -2.41700000      -0.99200000      -0.15890000
C       -0.12350000      -1.95060000      -0.99630000
H        0.83130000       1.95540000       0.34670000
H       -0.33980000       1.91600000      -0.98240000
H       -0.90020000       1.81720000       0.68890000
H        1.61420000      -0.48300000      -1.68520000
H        1.88010000      -2.84050000      -0.30900000
H       -0.58780000      -0.60180000       2.10150000
H       -2.80560000      -1.69840000       0.37040000
H       -0.41890000      -2.59840000      -1.80980000
