17
Properties=species:S:1:pos:R:3 gdb_6648=T pbc="F F F"
C        0.01280000       1.53190000      -0.04380000
C       -0.00640000       0.01960000       0.08200000
O       -0.04750000      -0.53690000       1.15430000
C        0.02910000      -0.76680000      -1.22650000
C        0.00720000      -2.28000000      -1.01850000
C        0.04420000      -3.03940000      -2.35870000
C        0.02400000      -4.49050000      -2.18420000
N        0.00770000      -5.63600000      -2.03380000
H        0.91410000       1.86040000      -0.57350000
H       -0.84450000       1.87790000      -0.63210000
H       -0.01570000       1.98580000       0.94730000
H       -0.82000000      -0.43960000      -1.84350000
H        0.92350000      -0.45680000      -1.78580000
H        0.85750000      -2.58030000      -0.40020000
H       -0.88790000      -2.56310000      -0.45810000
H       -0.81140000      -2.75610000      -2.98360000
H        0.94480000      -2.77350000      -2.92530000
