21
Properties=species:S:1:pos:R:3 gdb_88210=T pbc="F F F"
O       -0.05970000       1.42370000      -0.04060000
C       -0.04100000       0.02550000       0.01780000
C       -0.51630000      -0.68660000       1.26360000
C       -1.36520000      -0.67310000       0.00450000
C       -2.65810000       0.12700000      -0.00240000
C       -3.82020000      -0.78390000       0.42370000
C       -3.81750000      -2.07030000      -0.40720000
O       -2.57680000      -2.75400000      -0.32050000
C       -1.50040000      -1.95910000      -0.78890000
H        0.64730000       1.75280000       0.52390000
H        0.77370000      -0.43740000      -0.54210000
H       -0.02450000      -1.60830000       1.55830000
H       -0.84550000      -0.06120000       2.08730000
H       -2.57660000       1.00440000       0.64310000
H       -2.84280000       0.50220000      -1.01880000
H       -3.71510000      -1.04790000       1.48270000
H       -4.78180000      -0.27130000       0.30520000
H       -4.57720000      -2.77410000      -0.05500000
H       -4.04120000      -1.83200000      -1.46280000
H       -1.64870000      -1.71760000      -1.85720000
H       -0.60180000      -2.57830000      -0.70560000
