18
Properties=species:S:1:pos:R:3 gdb_46531=T pbc="F F F"
N        0.06110000       1.31570000      -0.06280000
C        0.02960000       0.05540000      -0.05860000
C       -1.21410000      -0.80800000      -0.03460000
C       -0.70980000      -2.16600000      -0.52340000
C       -1.51730000      -3.45160000      -0.25340000
O       -1.60340000      -3.75410000      -1.65830000
C       -0.92980000      -2.53130000      -2.01410000
C        0.74180000      -2.13330000      -0.03590000
O        1.13580000      -0.75430000      -0.07970000
H        1.02610000       1.65130000      -0.06420000
H       -1.57790000      -0.87900000       0.99840000
H       -2.01330000      -0.37370000      -0.63620000
H       -0.99320000      -4.23710000       0.30740000
H       -2.50530000      -3.29280000       0.19840000
H       -1.58590000      -1.84640000      -2.56680000
H       -0.02450000      -2.71470000      -2.60630000
H        0.82050000      -2.49990000       0.99710000
H        1.43120000      -2.70500000      -0.66230000
