20
Properties=species:S:1:pos:R:3 gdb_99038=T pbc="F F F"
C       -0.58510000       1.16580000       0.34370000
N        0.50400000       0.37310000      -0.19220000
C        0.26630000      -0.61410000      -1.12110000
O       -0.82680000      -0.80270000      -1.62520000
N        1.40850000      -1.34310000      -1.42780000
C        1.57630000      -2.40520000      -2.32840000
C        0.34120000      -2.98530000      -2.96560000
N        2.78700000      -2.76980000      -2.48790000
C        3.11260000      -3.87020000      -3.37640000
H       -0.27730000       2.21000000       0.45440000
H       -1.41330000       1.10700000      -0.36260000
H       -0.93310000       0.79600000       1.31700000
H        1.36540000       0.35110000       0.32810000
H        2.29830000      -1.03560000      -1.06050000
H        0.59890000      -3.86050000      -3.56120000
H       -0.39220000      -3.26100000      -2.20530000
H       -0.15080000      -2.24210000      -3.59670000
H        4.19910000      -3.99170000      -3.39830000
H        2.68420000      -4.82610000      -3.04300000
H        2.78050000      -3.70100000      -4.41020000
