13
Properties=species:S:1:pos:R:3 gdb_129446=T pbc="F F F"
N       -0.06960000       1.27990000       0.19010000
C        0.07720000      -0.06730000       0.15270000
O        1.13690000      -0.65510000       0.13740000
C       -1.25220000      -0.81540000       0.13080000
N       -1.20070000      -2.15220000       0.09380000
C       -2.38050000      -2.75040000       0.07620000
C       -3.56250000      -2.00550000       0.09550000
N       -3.54540000      -0.67660000       0.13240000
N       -2.36250000      -0.07330000       0.15030000
H        0.75590000       1.85400000       0.20670000
H       -0.98970000       1.68860000       0.20060000
H       -2.39500000      -3.83760000       0.04610000
H       -4.54170000      -2.47290000       0.08170000
