12
Properties=species:S:1:pos:R:3 gdb_21610=T pbc="F F F"
N        0.03350000       1.35910000       0.15230000
C       -0.05790000      -0.00060000       0.01500000
N       -1.18400000      -0.61350000       0.13670000
C       -1.14170000      -1.99500000       0.04350000
N       -2.18330000      -2.69290000      -0.16770000
N        0.13270000      -2.66460000       0.23610000
N        1.19800000      -2.03820000       0.11020000
N        1.12130000      -0.68110000      -0.20880000
H        0.76270000       1.83680000      -0.35520000
H       -0.86570000       1.81890000       0.12670000
H       -1.91900000      -3.67950000      -0.15620000
H        2.01280000      -0.22890000      -0.07020000
