16
Properties=species:S:1:pos:R:3 gdb_5517=T pbc="F F F"
C       -0.13120000       1.52270000       0.11920000
C       -0.00570000       0.03850000      -0.00870000
C        0.07340000      -0.72680000      -1.14840000
C        0.10030000      -0.41510000      -2.60410000
O       -0.58270000      -1.46540000      -3.28990000
N        0.20550000      -2.02770000      -0.70710000
C        0.17680000      -1.99720000       0.65200000
N        0.06410000      -0.77150000       1.10820000
H        0.80990000       1.98160000       0.44480000
H       -0.41480000       1.98600000      -0.83060000
H       -0.88870000       1.77760000       0.86650000
H       -0.37390000       0.56200000      -2.77650000
H        1.13770000      -0.33990000      -2.97190000
H       -0.43660000      -1.34850000      -4.23360000
H        0.18420000      -2.83220000      -1.31180000
H        0.23390000      -2.89380000       1.25140000
