20
Properties=species:S:1:pos:R:3 gdb_77908=T pbc="F F F"
C       -0.53170000       1.58530000      -0.37690000
C       -0.15160000       0.11980000      -0.21060000
N        1.04220000      -0.43250000      -0.93010000
C        1.83350000       0.37760000      -1.83980000
C        1.63180000      -0.92160000       0.30370000
C        1.81900000       0.12270000       1.38600000
O        2.18010000       1.46220000       1.17740000
C        0.43940000      -0.38160000       1.11540000
O       -0.31920000      -1.04140000       2.06690000
H        0.28520000       2.25370000      -0.10520000
H       -0.83800000       1.79280000      -1.40810000
H       -1.39020000       1.81030000       0.26600000
H       -1.01950000      -0.50710000      -0.45550000
H        2.22500000       1.31160000      -1.41060000
H        2.68290000      -0.22150000      -2.18680000
H        1.23400000       0.62960000      -2.72110000
H        2.13760000      -1.88250000       0.33770000
H        2.21900000      -0.31560000       2.30410000
H        3.11590000       1.48300000       0.95080000
H       -0.50680000      -0.42520000       2.78300000
