14
Properties=species:S:1:pos:R:3 gdb_25483=T pbc="F F F"
N        1.08810000      -0.08080000       0.30340000
C       -0.02990000       0.47520000       0.07100000
N       -1.20310000      -0.22210000       0.30980000
C       -2.47330000       0.23520000       0.11140000
N       -2.64680000       1.47910000      -0.36110000
C       -3.91900000       1.82590000      -0.51780000
N       -4.98840000       1.07230000      -0.25550000
C       -4.67940000      -0.14280000       0.20880000
N       -3.46130000      -0.62430000       0.41530000
H        1.85100000       0.55510000       0.07930000
H       -0.20950000       1.48060000      -0.31180000
H       -1.11570000      -1.16430000       0.66690000
H       -4.10430000       2.82800000      -0.89930000
H       -5.51000000      -0.80570000       0.44180000
