23
Properties=species:S:1:pos:R:3 gdb_106295=T pbc="F F F"
C       -0.01250000       1.50910000       0.04790000
C        0.02790000      -0.00130000       0.03710000
C        0.99670000      -0.80380000      -0.88900000
C        0.71300000      -1.95080000       0.12380000
C        1.63510000      -3.13440000       0.25240000
O        1.18970000      -3.92830000       1.34670000
C        0.64200000      -0.83240000       1.20590000
C       -0.78530000      -2.22640000      -0.13180000
C       -1.30160000      -0.75430000      -0.19680000
H        0.98150000       1.93660000       0.21770000
H       -0.38670000       1.90210000      -0.90500000
H       -0.67470000       1.88020000       0.83920000
H        0.70870000      -0.95490000      -1.93510000
H        2.02530000      -0.43520000      -0.83150000
H        1.62590000      -3.71300000      -0.68730000
H        2.66870000      -2.78610000       0.41160000
H        1.77190000      -4.68970000       1.42180000
H        1.63290000      -0.47310000       1.49860000
H        0.02850000      -1.01210000       2.09360000
H       -0.94580000      -2.77370000      -1.06670000
H       -1.23240000      -2.80640000       0.67810000
H       -2.03980000      -0.52920000       0.57990000
H       -1.74970000      -0.50240000      -1.16370000
