17
Properties=species:S:1:pos:R:3 gdb_117531=T pbc="F F F"
N        0.17840000       0.30990000       1.17280000
H        0.37120000      -0.19650000       2.77970000
H        1.13890000       0.42030000       0.85980000
H       -0.27240000      -0.32940000       0.52700000
C       -0.51880000       1.61100000       1.19970000
C       -0.27580000       2.36570000       2.51120000
C       -0.82010000       1.68540000       3.80600000
C       -2.11510000       1.04760000       3.56750000
N       -3.13190000       0.54350000       3.34510000
C        0.15710000       0.68150000       4.49730000
O        0.63400000      -0.29760000       3.74500000
O        0.44010000       0.82270000       5.65670000
H       -0.22340000       2.25540000       0.36170000
H       -1.58900000       1.41400000       1.09370000
H        0.79410000       2.55720000       2.65160000
H       -0.75800000       3.34420000       2.42130000
H       -0.96780000       2.45880000       4.56380000
