22
Properties=species:S:1:pos:R:3 gdb_109656=T pbc="F F F"
C       -1.17550000       2.22850000      -0.41660000
C       -0.90070000       0.96520000      -1.22970000
N       -1.63750000      -0.16420000      -0.66520000
C       -1.37010000      -1.52630000      -1.08250000
C       -0.35040000      -1.91310000      -2.13250000
C       -0.97950000      -1.06400000       0.30910000
C        0.46250000      -0.92900000       0.74840000
C       -1.92880000      -1.46500000       1.39670000
O       -1.60060000      -1.86150000       2.48720000
H       -0.67510000       3.09170000      -0.86630000
H       -2.24940000       2.42900000      -0.37180000
H       -0.80980000       2.12340000       0.60980000
H       -1.26190000       1.09890000      -2.25640000
H        0.18390000       0.79840000      -1.29470000
H       -2.28070000      -2.12440000      -1.15270000
H        0.56930000      -1.32880000      -2.08460000
H       -0.08590000      -2.97020000      -2.02660000
H       -0.77800000      -1.77940000      -3.13230000
H        1.17080000      -0.92100000      -0.07980000
H        0.60780000      -0.01370000       1.33190000
H        0.70560000      -1.76770000       1.40530000
H       -2.99680000      -1.36540000       1.10040000
