17
Properties=species:S:1:pos:R:3 gdb_54468=T pbc="F F F"
N        0.13810000       1.24650000       0.38440000
C        0.00160000      -0.01160000      -0.12970000
O        0.90120000      -0.58690000      -0.72320000
C       -1.33250000      -0.63420000       0.03800000
N       -1.41560000      -2.11750000      -0.01070000
C       -2.08800000      -1.33320000      -1.04380000
C       -3.43010000      -0.77450000      -0.49320000
C       -3.65340000      -1.13810000       0.95200000
C       -2.66400000      -0.05710000       0.61030000
H        1.06390000       1.64400000       0.38040000
H       -0.52680000       1.60890000       1.04600000
H       -0.51340000      -2.40510000      -0.39700000
H       -1.81380000      -1.41160000      -2.08780000
H       -4.20830000      -0.37740000      -1.13060000
H       -4.58970000      -0.77290000       1.36230000
H       -3.31310000      -2.08990000       1.33790000
H       -2.78120000       0.97120000       0.92900000
