23
Properties=species:S:1:pos:R:3 gdb_42132=T pbc="F F F"
C        0.06840000       1.56850000      -0.18760000
C        1.51780000       2.05670000      -0.03550000
C        2.16090000       1.89990000       1.34780000
O        1.35500000       2.44460000       2.38090000
C        0.91650000       1.55750000       3.40790000
C       -0.51490000       1.08830000       3.24030000
C       -0.93870000       0.17270000       2.36660000
C       -0.09570000      -0.55220000       1.35580000
C       -0.19700000       0.05830000      -0.06670000
H       -0.55410000       2.10360000       0.53660000
H       -0.27660000       1.88410000      -1.17980000
H        2.16890000       1.55220000      -0.76350000
H        1.53710000       3.12210000      -0.29570000
H        2.39340000       0.84790000       1.55450000
H        3.12170000       2.43550000       1.34960000
H        1.60090000       0.70020000       3.47770000
H        1.00350000       2.11130000       4.34920000
H       -1.24870000       1.56840000       3.88350000
H       -2.00560000      -0.04640000       2.33070000
H        0.94820000      -0.57520000       1.67910000
H       -0.41960000      -1.59870000       1.29510000
H       -1.21040000      -0.13280000      -0.44240000
H        0.48020000      -0.49610000      -0.73000000
