20
Properties=species:S:1:pos:R:3 gdb_41192=T pbc="F F F"
C       -0.00710000       1.51820000      -0.27750000
C        1.54740000       1.37820000       0.04120000
C        1.06350000       0.21300000       0.97530000
C        1.00560000      -1.34350000       1.13700000
C       -0.55320000      -1.07020000       0.91400000
C       -1.22850000      -0.64490000       2.21640000
O       -0.70160000       0.59030000       2.67510000
C        0.67630000       0.79110000       2.38470000
N       -0.06460000       0.08310000       0.10180000
H       -0.51120000       2.22670000       0.39430000
H       -0.29520000       1.72270000      -1.31190000
H        2.09110000       1.02940000      -0.83790000
H        2.05380000       2.23340000       0.49620000
H        1.42930000      -1.89330000       0.29650000
H        1.30640000      -1.78550000       2.09180000
H       -1.13340000      -1.82350000       0.37380000
H       -2.30060000      -0.47790000       2.06350000
H       -1.11790000      -1.43600000       2.97820000
H        1.31530000       0.32940000       3.15520000
H        0.82610000       1.87280000       2.43930000
