17
Properties=species:S:1:pos:R:3 gdb_69353=T pbc="F F F"
O       -0.19260000       1.43110000      -0.04540000
C       -0.07400000       0.05540000       0.01340000
C       -0.28980000      -0.83880000      -1.17050000
C       -1.21340000      -0.95120000       0.02560000
C       -0.52140000      -1.75660000       1.13360000
O       -0.18310000      -3.06630000       0.70700000
C        0.65480000      -0.69230000       1.13450000
C       -1.26040000      -1.78610000       2.39120000
C       -1.84580000      -1.83660000       3.44040000
H        0.52190000       1.77390000      -0.59330000
H       -0.75020000      -0.34670000      -2.02140000
H        0.39460000      -1.64580000      -1.41330000
H       -2.28220000      -0.80230000      -0.05100000
H        0.17180000      -3.54060000       1.46680000
H        1.64390000      -1.10120000       0.90470000
H        0.68650000      -0.12150000       2.06350000
H       -2.37260000      -1.87590000       4.36180000
