18
Properties=species:S:1:pos:R:3 gdb_54659=T pbc="F F F"
C       -0.08970000       1.50390000       0.00390000
C       -0.06780000      -0.01410000       0.03410000
O       -0.09700000      -0.62930000       1.08160000
C       -0.01390000      -0.71440000      -1.27570000
C       -0.08370000      -2.04950000      -1.40990000
C       -0.00920000      -2.49800000      -2.84880000
C        0.04480000      -1.18190000      -3.61920000
N       -1.15990000      -0.34470000      -3.44430000
C        0.05830000      -0.07100000      -2.62790000
H        0.82770000       1.89170000      -0.45500000
H       -0.92750000       1.86390000      -0.60370000
H       -0.17550000       1.88750000       1.02080000
H       -0.20730000      -2.72850000      -0.57460000
H        0.88210000      -3.11420000      -3.02790000
H       -0.87700000      -3.10570000      -3.13210000
H        0.58950000      -1.12290000      -4.55510000
H       -1.19450000       0.32460000      -4.21190000
H        0.59890000       0.85470000      -2.79160000
