18
Properties=species:S:1:pos:R:3 gdb_69096=T pbc="F F F"
C       -0.01900000       1.52410000      -0.04600000
C       -0.02360000       0.02210000       0.03390000
C       -1.29850000      -0.74840000      -0.29810000
N       -0.99270000      -2.11090000       0.14720000
C       -0.22180000      -2.00160000       1.38830000
C        0.65700000      -0.78430000       1.10800000
N        1.23610000      -0.67150000      -0.24540000
C        1.40000000      -0.20510000       2.19490000
N        1.96880000       0.25800000       3.08880000
H        0.93020000       1.92340000       0.31700000
H       -0.15010000       1.85100000      -1.08320000
H       -0.83130000       1.95120000       0.55080000
H       -2.13980000      -0.27320000       0.23590000
H       -1.53340000      -0.73990000      -1.36920000
H       -1.81170000      -2.69730000       0.24010000
H       -0.82380000      -1.79540000       2.28920000
H        0.35380000      -2.91650000       1.56700000
H        1.05640000      -1.54510000      -0.74030000
