21
Properties=species:S:1:pos:R:3 gdb_109008=T pbc="F F F"
C        0.05890000       1.51900000       0.26650000
C       -0.04420000       0.03810000      -0.14000000
C       -1.44330000      -0.48880000      -0.13090000
C       -2.18570000      -0.96340000      -1.13380000
C       -3.52270000      -1.45000000      -0.54110000
C       -3.69860000      -0.35040000       0.54970000
C       -2.29630000      -0.65490000       1.15520000
C       -2.47490000      -2.16790000       1.39580000
C       -3.20730000      -2.64140000       0.38830000
H        1.10120000       1.85280000       0.26110000
H       -0.50560000       2.15160000      -0.42550000
H       -0.33960000       1.68770000       1.27210000
H        0.38730000      -0.09620000      -1.13870000
H        0.57260000      -0.55990000       0.54710000
H       -1.90150000      -1.06820000      -2.17310000
H       -4.33620000      -1.59880000      -1.25080000
H       -3.78210000       0.65800000       0.13470000
H       -4.52060000      -0.55310000       1.24220000
H       -1.97490000      -0.07110000       2.01810000
H       -2.02960000      -2.71370000       2.21680000
H       -3.49760000      -3.66500000       0.19250000
