16
Properties=species:S:1:pos:R:3 gdb_8051=T pbc="F F F"
O       -0.07420000       1.33660000       0.04280000
C        0.04850000      -0.03560000       0.02060000
C        0.61770000      -0.94960000      -1.11080000
C        0.08010000      -1.90110000      -0.00790000
C        0.75030000      -0.97800000       1.04930000
C       -1.19330000      -0.98270000       0.06410000
C       -2.04240000      -1.01450000       1.23630000
C       -2.77220000      -1.04700000       2.19190000
H        0.80680000       1.72380000       0.08770000
H        0.08500000      -0.94290000      -2.06520000
H        1.70200000      -0.93710000      -1.24770000
H        0.07800000      -2.98770000      -0.02120000
H        1.84370000      -0.96690000       1.05150000
H        0.33620000      -1.00010000       2.05800000
H       -1.78990000      -0.97250000      -0.85350000
H       -3.41360000      -1.06930000       3.03770000
