18
Properties=species:S:1:pos:R:3 gdb_29705=T pbc="F F F"
C       -0.08230000       1.43960000      -0.00560000
N       -0.00400000      -0.00320000       0.02850000
C        0.00160000      -0.83430000      -1.04630000
N       -0.09440000      -0.35220000      -2.35590000
N        0.02020000      -2.10630000      -0.69680000
C        0.02990000      -2.08660000       0.67290000
O        0.04810000      -3.23900000       1.38880000
C        0.03190000      -0.81660000       1.17740000
C        0.06740000      -0.29660000       2.57050000
H        0.89920000       1.91170000       0.12700000
H       -0.49540000       1.74450000      -0.96950000
H       -0.74440000       1.79860000       0.78670000
H        0.70000000       0.21520000      -2.63320000
H       -0.16810000      -1.14030000      -2.98810000
H        0.06310000      -3.95300000       0.74110000
H        0.94130000       0.33900000       2.76680000
H       -0.82460000       0.28760000       2.83550000
H        0.11630000      -1.14450000       3.25780000
