18
Properties=species:S:1:pos:R:3 gdb_78363=T pbc="F F F"
C       -0.16020000       1.24170000      -0.09490000
N        0.16030000      -0.17640000       0.04990000
C        1.58970000      -0.48490000      -0.09840000
C        0.95620000      -0.48270000       1.26350000
C        1.04640000      -1.98560000       1.32340000
C        1.31170000      -2.87430000       2.45160000
O        0.03310000      -2.84340000       1.79880000
C        1.65140000      -2.02610000      -0.12180000
O        0.92430000      -2.67710000      -1.11590000
H        0.62310000       1.91580000       0.28870000
H       -0.31530000       1.46480000      -1.15470000
H       -1.09000000       1.45400000       0.44110000
H        2.27350000       0.23110000      -0.53680000
H        1.03900000       0.24430000       2.06200000
H        1.89610000      -3.78030000       2.29500000
H        1.32500000      -2.48100000       3.46780000
H        2.66940000      -2.42390000      -0.13710000
H        0.05200000      -2.25900000      -1.11260000
