16
Properties=species:S:1:pos:R:3 gdb_123604=T pbc="F F F"
C        0.05820000       1.47660000       0.00380000
C        1.28880000       0.65140000       0.05590000
C        1.91680000       0.32760000       1.41850000
N        0.81030000      -0.36840000       2.04640000
N        0.65840000      -0.90470000       3.27060000
C       -0.56240000      -1.44460000       3.21000000
C       -1.19080000      -1.26540000       1.95070000
C       -0.25230000      -0.55970000       1.23030000
N       -0.05330000      -0.00530000      -0.05670000
H       -0.28020000       1.96190000       0.91550000
H       -0.20460000       1.98340000      -0.91930000
H        1.92250000       0.57750000      -0.82060000
H        2.79110000      -0.32380000       1.31250000
H        2.21160000       1.21410000       1.98860000
H       -0.95740000      -1.95520000       4.07670000
H       -2.16460000      -1.59680000       1.63330000
