25
Properties=species:S:1:pos:R:3 gdb_63648=T pbc="F F F"
C       -0.00980000       1.53290000      -0.10200000
C        0.04610000       0.02120000       0.02330000
C       -1.08120000      -0.68720000      -0.70640000
C        1.39940000      -0.65620000       0.04210000
C        0.55350000      -0.62600000       1.29650000
C        0.98080000       0.14440000       2.53290000
C        1.82410000      -0.68820000       3.48040000
C        3.31910000      -0.77660000       3.30900000
C        2.73460000      -0.02680000       4.48260000
H        0.83210000       2.02510000       0.39090000
H        0.01000000       1.83020000      -1.15740000
H       -0.93290000       1.93460000       0.33360000
H       -1.06770000      -0.45190000      -1.77770000
H       -1.00350000      -1.77410000      -0.60390000
H       -2.05990000      -0.38390000      -0.31460000
H        1.52170000      -1.59630000      -0.48660000
H        2.27990000      -0.02090000       0.01810000
H        0.06300000      -1.56780000       1.53860000
H        1.54790000       1.03860000       2.24860000
H        0.09000000       0.50490000       3.06700000
H        1.33710000      -1.60000000       3.81960000
H        3.81030000      -1.72540000       3.49530000
H        3.77200000      -0.19470000       2.51300000
H        2.79610000       1.05700000       4.47230000
H        2.82370000      -0.46400000       5.47120000
