21
Properties=species:S:1:pos:R:3 gdb_98288=T pbc="F F F"
C       -0.09360000       1.41260000       0.11270000
C        0.20060000      -0.08160000      -0.00770000
C        0.81870000      -0.47280000      -1.33370000
O        1.12920000       0.34590000      -2.17480000
C        1.05440000      -1.96310000      -1.63590000
O        1.57300000      -2.09810000      -2.93210000
C        1.97410000      -2.60880000      -0.61340000
C        1.41440000      -3.28170000       0.61780000
C        1.99800000      -4.10930000      -0.49810000
H        0.81930000       2.00080000      -0.00730000
H       -0.79420000       1.73840000      -0.66060000
H       -0.52750000       1.64010000       1.09010000
H        0.88090000      -0.41890000       0.78490000
H       -0.70850000      -0.68170000       0.13070000
H        0.07010000      -2.46210000      -1.56890000
H        1.64650000      -1.18990000      -3.26950000
H        2.93060000      -2.10380000      -0.50630000
H        1.96780000      -3.19500000       1.54620000
H        0.33700000      -3.29680000       0.74710000
H        1.31510000      -4.67100000      -1.12630000
H        2.95500000      -4.59230000      -0.33810000
