16
Properties=species:S:1:pos:R:3 gdb_19572=T pbc="F F F"
C        0.04860000       1.48570000       0.01370000
O        1.22290000       0.64330000      -0.01300000
C       -0.04040000       0.03410000      -0.00080000
C       -0.58930000      -0.97170000       1.02950000
C       -1.76960000      -1.14330000       0.01490000
C       -0.61510000      -0.96720000      -1.00830000
O        0.19260000      -2.13490000      -0.79420000
C        0.27480000      -2.18610000       0.65370000
H       -0.10750000       2.03250000       0.94260000
H       -0.12890000       2.05700000      -0.89640000
H       -0.72780000      -0.73860000       2.08340000
H       -2.28260000      -2.10610000      -0.00360000
H       -2.47500000      -0.31150000       0.03430000
H       -0.74280000      -0.78500000      -2.07290000
H        1.31770000      -2.08110000       0.97210000
H       -0.12530000      -3.13940000       1.01630000
