18
Properties=species:S:1:pos:R:3 gdb_128792=T pbc="F F F"
C        0.03610000       1.41370000      -0.88750000
O       -0.06020000       0.01640000      -1.03880000
C        0.91690000      -0.68460000      -0.27290000
C        0.80240000      -2.14110000      -0.55550000
C        0.69450000      -3.20080000       0.32010000
N        0.66430000      -4.32490000      -0.42720000
N        0.72370000      -4.07730000      -1.76370000
C        0.81590000      -2.75450000      -1.84000000
N        0.95300000      -2.08500000      -3.05150000
H       -0.13170000       1.72150000       0.15660000
H        1.02140000       1.79330000      -1.20150000
H       -0.73510000       1.86570000      -1.51580000
H        1.91770000      -0.30510000      -0.54420000
H        0.77590000      -0.48250000       0.80110000
H        0.64640000      -3.22950000       1.39800000
H        0.59370000      -5.27600000      -0.11360000
H        0.68370000      -2.65960000      -3.83920000
H        0.45680000      -1.20280000      -3.04320000
