18
Properties=species:S:1:pos:R:3 gdb_77533=T pbc="F F F"
C        0.01350000       1.45190000       0.07920000
C       -0.00820000      -0.04190000      -0.03100000
C        0.58110000      -0.96300000      -1.13830000
C        0.06330000      -1.88810000      -0.01090000
N        0.62030000      -0.94560000       1.04280000
C        0.16650000      -3.31900000       0.09620000
N        0.21270000      -4.47260000       0.17180000
C       -1.24820000      -0.98280000       0.03690000
N       -2.07300000      -0.89510000       1.19370000
H        1.03900000       1.83430000       0.10690000
H       -0.49470000       1.90480000      -0.77810000
H       -0.50210000       1.77040000       0.98970000
H        0.07470000      -1.00120000      -2.10780000
H        1.66810000      -0.93390000      -1.24680000
H        1.64150000      -0.91760000       0.95740000
H       -1.84880000      -1.03240000      -0.87390000
H       -2.76160000      -1.63860000       1.22070000
H       -1.49720000      -0.95100000       2.02860000
