21
Properties=species:S:1:pos:R:3 gdb_95966=T pbc="F F F"
O       -0.15310000       1.58020000       0.60970000
C       -0.07160000       0.24530000       0.12280000
C        0.62040000      -0.68320000       1.13000000
C       -0.50320000      -0.90140000       2.14750000
O       -1.70800000      -0.90140000       1.38500000
C       -1.49190000      -0.34270000       0.09480000
C       -2.60620000       0.59190000      -0.43460000
C       -2.50160000      -0.12030000      -1.81170000
C       -1.76650000      -1.29240000      -1.10780000
H        0.74360000       1.91370000       0.71260000
H        0.39490000       0.22230000      -0.87110000
H        0.89490000      -1.62570000       0.64410000
H        1.52490000      -0.24450000       1.56160000
H       -0.42490000      -1.85240000       2.68420000
H       -0.52560000      -0.08660000       2.88380000
H       -3.54630000       0.36020000       0.07190000
H       -2.41700000       1.66400000      -0.38140000
H       -3.43480000      -0.35610000      -2.32640000
H       -1.85120000       0.41920000      -2.50570000
H       -0.90860000      -1.75000000      -1.61050000
H       -2.45780000      -2.07960000      -0.79670000
