20
Properties=species:S:1:pos:R:3 gdb_12666=T pbc="F F F"
C       -0.25680000       1.52360000      -0.06890000
C        0.05570000       0.03030000       0.00390000
C        0.90640000      -0.49740000      -1.17600000
C        1.36680000      -1.88650000      -0.71530000
C        1.48570000      -1.76770000       0.80770000
O        2.03390000      -2.55540000       1.53570000
C        0.81630000      -0.45810000       1.26340000
C        1.90170000       0.49210000       1.80220000
H        0.65620000       2.12730000      -0.08670000
H       -0.82150000       1.75420000      -0.97870000
H       -0.85830000       1.85150000       0.78570000
H       -0.89880000      -0.51460000      -0.02030000
H        0.34530000      -0.51450000      -2.11430000
H        1.77320000       0.15690000      -1.33190000
H        0.60230000      -2.64660000      -0.92570000
H        2.30080000      -2.24580000      -1.15370000
H        0.13150000      -0.68830000       2.08650000
H        2.61730000       0.78170000       1.02510000
H        1.45950000       1.40560000       2.20860000
H        2.45860000      -0.00800000       2.59890000
