17
Properties=species:S:1:pos:R:3 gdb_104485=T pbc="F F F"
C        0.71070000      -0.45250000       1.39130000
O        0.11240000      -0.14670000       0.13580000
C       -1.16720000      -0.64200000      -0.05400000
C       -2.23190000       0.04890000       0.78200000
O       -1.98010000       0.92480000       1.57230000
C       -1.55890000      -0.91310000      -1.54540000
C       -0.56240000      -2.09350000      -1.59950000
C       -1.38950000      -2.19250000      -0.29670000
O       -2.60230000      -1.84370000      -1.06400000
H        1.72100000      -0.04030000       1.35740000
H        0.16080000       0.00210000       2.21900000
H        0.77840000      -1.53930000       1.54450000
H       -3.26230000      -0.30990000       0.61010000
H       -1.83830000      -0.18860000      -2.31000000
H       -0.80290000      -2.85340000      -2.34320000
H        0.49930000      -1.86610000      -1.52290000
H       -1.47230000      -3.00310000       0.42720000
