15
Properties=species:S:1:pos:R:3 gdb_26051=T pbc="F F F"
O       -0.86940000       0.65790000       0.09940000
C        0.06000000      -0.41000000      -0.12610000
C        0.92890000      -0.15980000      -1.27890000
C        1.63140000       0.07920000      -2.22350000
C        0.85700000      -0.70090000       1.11290000
C        2.17280000      -0.99300000       1.36670000
N        2.37360000      -1.21220000       2.71040000
C        1.19450000      -1.05100000       3.26640000
N        0.23770000      -0.75010000       2.34490000
H       -0.35100000       1.46350000       0.21570000
H       -0.59050000      -1.26440000      -0.35910000
H        2.24980000       0.28280000      -3.06310000
H        2.97880000      -1.06180000       0.65320000
H        0.97360000      -1.13340000       4.32030000
H       -0.72640000      -0.51100000       2.51080000
