18
Properties=species:S:1:pos:R:3 gdb_72705=T pbc="F F F"
O       -0.01730000       1.29350000      -0.23650000
C        0.04580000      -0.10970000      -0.04630000
C        0.10570000      -0.43280000       1.47910000
O       -1.36610000      -0.52480000       1.49220000
C       -1.30540000      -0.79600000       0.07240000
C       -1.93100000      -0.47370000      -1.30560000
N       -0.82180000      -1.42310000      -1.79680000
C       -1.06530000      -2.19560000      -0.51870000
C        0.47520000      -0.74210000      -1.39090000
H       -0.59280000       1.65770000       0.44850000
H        0.56540000      -1.38380000       1.76540000
H        0.46500000       0.37560000       2.12070000
H       -2.89700000      -0.92900000      -1.52510000
H       -1.86690000       0.55220000      -1.66690000
H       -0.22370000      -2.80240000      -0.17530000
H       -1.96880000      -2.80360000      -0.59730000
H        0.74960000       0.03410000      -2.10550000
H        1.26280000      -1.49570000      -1.34890000
