14
Properties=species:S:1:pos:R:3 gdb_127348=T pbc="F F F"
C       -0.03100000       1.38400000       0.13050000
N        0.02890000      -0.05450000      -0.01620000
C       -0.08490000      -0.80930000      -1.12080000
N        0.04810000      -2.09350000      -0.82430000
C        0.23810000      -2.04840000       0.51610000
O        0.45430000      -3.13640000       1.29390000
C        0.05370000      -4.36510000       0.82900000
O        0.28250000      -5.35330000       1.45030000
N        0.23710000      -0.84910000       1.06790000
H        0.91300000       1.75900000       0.53280000
H       -0.21160000       1.82740000      -0.85020000
H       -0.84180000       1.65690000       0.80980000
H       -0.25350000      -0.39670000      -2.10420000
H       -0.47370000      -4.30070000      -0.13210000
