17
Properties=species:S:1:pos:R:3 gdb_131137=T pbc="F F F"
O        0.06870000       1.36920000       0.10340000
C        0.00450000      -0.02430000      -0.01880000
C       -0.59130000      -0.79550000       1.14290000
C       -1.40040000      -0.55870000      -0.11100000
C        1.09600000      -0.59660000      -0.83980000
C        1.99170000       0.03710000      -1.68150000
C        2.80070000      -0.99880000      -2.19530000
N        2.44950000      -2.18880000      -1.72080000
N        1.41320000      -1.91800000      -0.89730000
H        0.88760000       1.58390000       0.56560000
H       -0.23110000      -1.79540000       1.36290000
H       -0.84460000      -0.20680000       2.01690000
H       -2.19240000       0.17960000      -0.06600000
H       -1.58250000      -1.39060000      -0.78180000
H        2.02820000       1.09160000      -1.89740000
H        3.62330000      -0.92390000      -2.89160000
H        0.98200000      -2.67970000      -0.40250000
