21
Properties=species:S:1:pos:R:3 gdb_94894=T pbc="F F F"
O       -0.12360000       1.48420000       0.02790000
C       -0.02150000       0.06160000       0.00630000
C        0.59400000      -0.54400000       1.30680000
C       -0.25780000      -1.79860000       1.66050000
C       -1.50630000      -1.56360000       0.85730000
C       -1.38180000      -0.56600000      -0.01830000
C       -2.59220000      -0.38900000      -0.88900000
C       -3.63950000      -1.30030000      -0.17530000
C       -2.83180000      -2.26430000       0.74930000
H        0.76410000       1.84460000      -0.06190000
H        0.55900000      -0.24240000      -0.88270000
H        1.66050000      -0.76730000       1.20990000
H        0.48090000       0.21470000       2.08740000
H        0.24430000      -2.72690000       1.35310000
H       -0.43990000      -1.89490000       2.73770000
H       -2.92460000       0.65150000      -0.96220000
H       -2.39300000      -0.72220000      -1.91810000
H       -4.29540000      -0.67840000       0.44150000
H       -4.27970000      -1.83590000      -0.88100000
H       -2.71530000      -3.26190000       0.30120000
H       -3.32370000      -2.42210000       1.71650000
