18
Properties=species:S:1:pos:R:3 gdb_95872=T pbc="F F F"
O       -0.07310000       1.46610000       0.09590000
C        0.04040000       0.05410000       0.02970000
C        0.73520000      -0.50390000       1.28080000
O        0.74720000      -1.92210000       1.28500000
C       -0.55050000      -2.46900000       1.29790000
C       -1.36190000      -2.05290000       0.04930000
C       -1.37650000      -0.50980000      -0.06410000
C       -0.81560000      -2.67490000      -1.16150000
N       -0.39480000      -3.16450000      -2.12010000
H        0.80380000       1.84640000      -0.01750000
H        0.61050000      -0.25880000      -0.85770000
H        1.78230000      -0.18800000       1.32230000
H        0.22080000      -0.11080000       2.17370000
H       -0.43370000      -3.55400000       1.34480000
H       -1.10770000      -2.13590000       2.18940000
H       -2.38980000      -2.41630000       0.16690000
H       -1.96520000      -0.10660000       0.76830000
H       -1.85410000      -0.18730000      -0.99260000
