15
Properties=species:S:1:pos:R:3 gdb_24058=T pbc="F F F"
C        0.31010000      -0.41270000       1.08420000
C        0.13590000       0.41360000       0.22940000
C       -0.03460000       1.40330000      -0.83580000
N        1.17130000       2.18020000      -1.12190000
C        1.41270000       3.29830000      -0.36800000
N        0.56790000       3.99730000       0.32740000
C        1.33930000       5.05510000       0.80780000
C        2.60990000       4.92850000       0.37730000
O        2.67510000       3.77920000      -0.39430000
H        0.45180000      -1.13350000       1.85130000
H       -0.34900000       0.90370000      -1.75850000
H       -0.81660000       2.11870000      -0.56760000
H        1.99970000       1.63500000      -1.31450000
H        0.91210000       5.82390000       1.43210000
H        3.52700000       5.47780000       0.49060000
