21
Properties=species:S:1:pos:R:3 gdb_94853=T pbc="F F F"
C       -0.02950000       1.47840000      -0.14700000
C        0.10130000      -0.00790000       0.11080000
O        0.40340000      -0.71620000      -1.09000000
C        1.52200000      -1.55610000      -0.83840000
C        1.66740000      -1.54080000       0.68790000
C        1.07430000      -2.76630000       1.44740000
C        2.52390000      -3.29840000       1.61790000
C        3.05090000      -1.87560000       1.27710000
O        1.16140000      -0.25760000       1.00800000
H        0.91000000       1.86890000      -0.54600000
H       -0.82920000       1.66020000      -0.86970000
H       -0.27000000       2.00140000       0.78280000
H       -0.83940000      -0.41880000       0.51920000
H        1.33010000      -2.55380000      -1.24750000
H        2.42130000      -1.14490000      -1.31940000
H        0.64440000      -2.44230000       2.39890000
H        0.35140000      -3.39530000       0.92200000
H        2.79220000      -3.70680000       2.59360000
H        2.78940000      -4.03110000       0.85140000
H        3.91340000      -1.78520000       0.61150000
H        3.23040000      -1.27850000       2.17450000
