16
Properties=species:S:1:pos:R:3 gdb_79382=T pbc="F F F"
O        0.00150000       1.47370000      -0.07040000
C        0.06830000       0.07240000      -0.02350000
C        0.03150000      -0.61330000       1.36080000
C       -1.50170000      -0.31570000       1.53820000
C       -1.82930000      -1.78740000       1.85320000
C       -0.73000000      -1.86090000       0.76920000
C       -0.12830000      -3.02200000       0.17020000
N        0.35140000      -3.96220000      -0.30400000
C       -1.30450000      -0.60580000       0.00600000
H        0.89520000       1.82590000      -0.01530000
H        0.79260000      -0.33430000      -0.74220000
H        0.78340000      -0.65890000       2.14970000
H       -1.92900000       0.58860000       1.96210000
H       -1.55370000      -2.15870000       2.84400000
H       -2.81830000      -2.15080000       1.56070000
H       -2.08040000      -0.63690000      -0.75870000
