14
Properties=species:S:1:pos:R:3 gdb_133174=T pbc="F F F"
C        0.00780000       1.54510000      -0.00530000
C       -0.04800000       0.04530000       0.00150000
C       -1.18360000      -0.68220000      -0.14830000
C       -1.17390000      -2.14070000      -0.13290000
O       -2.13600000      -2.87720000      -0.25870000
N        0.11100000      -2.66020000       0.04950000
N        1.26270000      -1.98410000       0.20190000
C        1.16550000      -0.70430000       0.17620000
F        2.29530000      -0.01610000       0.32550000
H        0.66330000       1.90550000      -0.80480000
H       -0.98660000       1.97230000      -0.14670000
H        0.42310000       1.92230000       0.93500000
H       -2.15020000      -0.21150000      -0.28620000
H        0.19900000      -3.66710000       0.07130000
