18
Properties=species:S:1:pos:R:3 gdb_32414=T pbc="F F F"
C       -0.04100000       1.52030000       0.09590000
C        0.05880000       0.03200000       0.06160000
C       -0.02320000      -0.73050000      -1.12100000
O       -0.14370000      -0.49740000      -2.30740000
O        0.05390000      -2.13700000      -0.67780000
C        0.13430000      -2.15920000       0.65900000
C        0.17000000      -0.88120000       1.15730000
C        0.13270000      -0.53120000       2.57140000
N       -1.31980000       0.04970000       2.83460000
H       -1.43820000       0.84920000       2.20000000
H       -1.98450000      -0.67260000       2.54160000
H       -1.50930000       0.34330000       3.79720000
H        0.81960000       2.02940000       0.55620000
H       -0.12450000       1.88690000      -0.93180000
H       -0.94170000       1.92420000       0.62140000
H        0.25260000      -3.11780000       1.14480000
H        0.23950000      -1.37570000       3.25460000
H        0.78330000       0.29350000       2.88010000
