18
Properties=species:S:1:pos:R:3 gdb_114178=T pbc="F F F"
O        0.12300000       1.37780000       0.01960000
C        0.05350000      -0.03010000       0.19030000
C       -1.36620000      -0.55500000       0.01630000
C       -2.00180000      -0.53420000      -1.42440000
C       -2.21580000      -2.04120000      -1.31760000
N       -0.88040000      -2.65790000      -1.09300000
C       -1.56740000      -2.07990000       0.05590000
C       -3.36930000      -2.84150000      -1.72920000
O       -4.31820000      -2.41780000      -2.34540000
H       -0.05440000       1.57060000      -0.90660000
H        0.72960000      -0.55910000      -0.49480000
H        0.39890000      -0.22420000       1.21210000
H       -2.03000000      -0.05890000       0.72870000
H       -2.93950000       0.01930000      -1.47610000
H       -1.34620000      -0.22980000      -2.24490000
H       -0.99770000      -3.67180000      -1.05950000
H       -1.84140000      -2.69050000       0.90880000
H       -3.31390000      -3.90780000      -1.39970000
