20
Properties=species:S:1:pos:R:3 gdb_63743=T pbc="F F F"
C        0.03980000       1.56430000      -0.03540000
C        0.01150000       0.03530000       0.01460000
O       -1.35400000      -0.41970000       0.02310000
C        0.68800000      -0.64240000      -1.20390000
C        1.46880000      -1.82850000      -0.63130000
C        1.39710000      -3.20110000      -1.20640000
N        2.63440000      -2.41090000      -1.32300000
C        1.55650000      -1.56920000       0.82970000
C        0.77980000      -0.54920000       1.18950000
H        1.06640000       1.94200000      -0.07250000
H       -0.50220000       1.92540000      -0.91480000
H       -0.44020000       1.98800000       0.85500000
H       -1.74890000      -0.14660000       0.85830000
H       -0.06380000      -0.92770000      -1.94290000
H        1.38570000       0.05910000      -1.67470000
H        1.46940000      -4.07150000      -0.55930000
H        0.77510000      -3.34320000      -2.08670000
H        2.70430000      -2.01650000      -2.25880000
H        2.17500000      -2.17470000       1.48220000
H        0.64870000      -0.17580000       2.20050000
