17
Properties=species:S:1:pos:R:3 gdb_55965=T pbc="F F F"
C        0.02770000       1.39020000      -0.28070000
C       -0.00930000      -0.10480000      -0.41290000
N        0.86650000      -0.76070000      -1.04170000
O       -1.12580000      -0.59160000       0.23890000
C       -1.16340000      -1.96450000       0.53960000
C       -2.51250000      -2.39900000       1.17290000
N       -2.65430000      -3.33950000       0.05570000
C       -1.50820000      -2.97890000      -0.59960000
O       -0.98320000      -3.33760000      -1.62020000
H        0.88170000       1.78250000      -0.83050000
H       -0.89620000       1.82450000      -0.67600000
H        0.09700000       1.68120000       0.77220000
H        0.66370000      -1.75820000      -1.11410000
H       -0.27350000      -2.26480000       1.10510000
H       -2.44370000      -2.87080000       2.15700000
H       -3.25480000      -1.59680000       1.18510000
H       -3.35270000      -4.03660000      -0.15460000
