17
Properties=species:S:1:pos:R:3 gdb_43738=T pbc="F F F"
O       -0.11720000       0.40100000      -1.09730000
C       -0.07010000       1.29850000      -0.30840000
C       -1.12820000       2.12300000       0.43900000
C        0.00540000       3.13010000       0.81480000
C        1.07640000       2.13530000       0.28400000
C       -0.05200000       4.51730000       0.16190000
O       -0.65880000       5.31290000       1.16680000
C       -0.11340000       4.82830000       2.36560000
O        0.09100000       3.43260000       2.20020000
H       -1.98200000       2.48660000      -0.13840000
H       -1.49400000       1.59540000       1.32600000
H        1.57970000       1.61410000       1.10460000
H        1.82930000       2.50930000      -0.41570000
H        0.96320000       4.87850000      -0.06940000
H       -0.66430000       4.56540000      -0.74030000
H        0.85300000       5.31370000       2.58870000
H       -0.82420000       5.01250000       3.17740000
