20
Properties=species:S:1:pos:R:3 gdb_111997=T pbc="F F F"
C       -0.19910000       1.38860000       0.22500000
C        0.04110000      -0.10170000       0.12610000
C        0.54380000      -0.80270000      -1.09570000
C        1.30120000       0.02960000      -2.07390000
C        2.43130000       0.47890000      -1.52710000
C        2.60240000      -0.08830000      -0.13380000
C        2.99780000       0.86940000       0.99210000
O        3.12860000       0.17960000       2.22170000
N        1.33910000      -0.81980000       0.16130000
H        0.44730000       1.97150000      -0.43190000
H       -1.23960000       1.59620000      -0.05070000
H       -0.05960000       1.74060000       1.25230000
H       -0.68720000      -0.67010000       0.70450000
H        0.08600000      -1.73340000      -1.42430000
H        0.94740000       0.23360000      -3.07720000
H        3.15620000       1.13380000      -1.99760000
H        3.39020000      -0.85800000      -0.15240000
H        3.97810000       1.30500000       0.76680000
H        2.28270000       1.69920000       1.07180000
H        2.38230000      -0.42910000       2.27370000
