20
Properties=species:S:1:pos:R:3 gdb_80000=T pbc="F F F"
C        0.04120000       1.43540000      -0.05720000
N       -0.00610000      -0.01640000       0.01590000
C       -1.21040000      -0.66470000       0.66140000
C       -0.87530000      -2.13320000       0.26660000
C        0.43690000      -2.23920000       0.52580000
C        0.71530000      -0.85110000       1.09730000
C        1.65260000      -0.08520000       2.03040000
C        0.36650000       0.48850000       2.74450000
C       -0.49030000      -0.63630000       2.05020000
H        1.08360000       1.77020000      -0.06370000
H       -0.39530000       1.73870000      -1.01700000
H       -0.49330000       1.99090000       0.72860000
H       -2.20600000      -0.27980000       0.42750000
H       -1.55750000      -2.84530000      -0.17430000
H        1.11890000      -3.06270000       0.37330000
H        2.21850000      -0.75180000       2.68780000
H        2.34680000       0.62640000       1.57570000
H        0.37440000       0.38190000       3.83110000
H        0.14370000       1.52700000       2.51050000
H       -0.76730000      -1.43100000       2.74730000
