17
Properties=species:S:1:pos:R:3 gdb_75412=T pbc="F F F"
C        0.05160000       1.50830000       0.12920000
C       -0.01660000       0.00880000       0.07510000
C       -1.14040000      -0.67510000      -0.17410000
C       -1.23670000      -2.15940000      -0.23350000
N        0.02080000      -2.82550000       0.00750000
C        1.23970000      -2.24030000       0.27290000
N        2.34220000      -2.85090000       0.48260000
C        1.25670000      -0.71410000       0.31720000
O        2.28340000      -0.11410000       0.54400000
H        0.76740000       1.88770000      -0.60680000
H       -0.92630000       1.95750000      -0.05970000
H        0.41540000       1.84190000       1.10610000
H       -2.07450000      -0.14720000      -0.35190000
H       -1.99380000      -2.49110000       0.49720000
H       -1.64060000      -2.44520000      -1.21950000
H        0.01100000      -3.83360000      -0.02170000
H        2.22050000      -3.86580000       0.43060000
