15
Properties=species:S:1:pos:R:3 gdb_46164=T pbc="F F F"
O        0.02910000      -0.05260000       0.11040000
C       -0.01470000       1.14610000       0.02600000
N       -1.18430000       1.86140000       0.00190000
C       -1.35520000       3.30110000      -0.04190000
C       -0.03330000       3.96070000       0.38120000
C        1.10170000       3.24820000      -0.37250000
O        1.14100000       1.87240000      -0.01470000
C       -0.04020000       5.39420000       0.10800000
N       -0.04070000       6.52630000      -0.12220000
H       -2.00400000       1.27670000       0.02750000
H       -1.62280000       3.64580000      -1.05010000
H       -2.16350000       3.59920000       0.63310000
H        0.12540000       3.80780000       1.45510000
H        0.96080000       3.35960000      -1.45520000
H        2.07720000       3.65790000      -0.10590000
