20
Properties=species:S:1:pos:R:3 gdb_38187=T pbc="F F F"
C       -0.00190000       1.35640000      -0.26180000
C        1.45750000       1.51910000       0.20540000
C        1.27820000       0.09510000       0.78240000
O       -0.04040000      -0.01560000       0.17760000
C        2.20980000      -0.99350000       0.30410000
C        3.67640000      -1.03830000       0.88120000
C        3.38850000      -2.45630000       1.38730000
N        2.25000000      -2.32600000       2.32810000
C        1.99560000      -2.40920000       0.86810000
H       -0.72950000       1.97830000       0.27670000
H       -0.18950000       1.45020000      -1.33820000
H        2.18720000       1.58230000      -0.60560000
H        1.65310000       2.31390000       0.92650000
H        1.20640000       0.06210000       1.87610000
H        2.22310000      -1.00820000      -0.78980000
H        4.43170000      -0.99460000       0.09420000
H        3.91800000      -0.31260000       1.66260000
H        4.07910000      -3.28680000       1.46680000
H        2.06690000      -3.25260000       2.71190000
H        1.36760000      -3.19130000       0.46060000
