17
Properties=species:S:1:pos:R:3 gdb_67113=T pbc="F F F"
O        0.20180000       1.36360000       0.12950000
C        0.15440000      -0.00690000       0.00820000
C        0.37290000      -0.99850000       1.17160000
C       -1.13650000      -0.95210000       1.58450000
C       -1.14780000      -0.91700000       0.04100000
C       -1.78390000      -0.80030000      -1.32290000
O       -0.56680000      -0.80450000      -2.12470000
C        0.52110000      -0.91440000      -1.16780000
C        0.06670000      -1.89170000      -0.07590000
H       -0.08620000       1.74740000      -0.70750000
H        1.24370000      -1.06860000       1.82280000
H       -1.54730000      -1.84630000       2.06190000
H       -1.47070000      -0.04660000       2.09710000
H       -2.41880000      -1.64260000      -1.61810000
H       -2.33160000       0.13680000      -1.48510000
H        1.46240000      -0.93800000      -1.71660000
H       -0.01450000      -2.97530000      -0.10700000
