15
Properties=species:S:1:pos:R:3 gdb_48405=T pbc="F F F"
O       -0.17010000      -0.07410000       0.53940000
C        0.07370000       0.80340000      -0.25100000
C        1.19510000       1.80490000      -0.05430000
C        2.61510000       1.28470000      -0.58740000
C        2.58730000       2.43560000      -1.59620000
O        1.39330000       2.29960000      -2.37500000
C        1.30260000       2.93620000      -1.09580000
C        1.30770000       2.24910000       1.38590000
O        1.58220000       3.37820000       1.70690000
H       -0.50310000       0.92490000      -1.19020000
H        3.39030000       1.39010000       0.17500000
H        2.63340000       0.27470000      -1.00170000
H        3.42140000       2.95560000      -2.05000000
H        0.89690000       3.93770000      -1.04170000
H        1.12710000       1.44690000       2.12880000
