10
Properties=species:S:1:pos:R:3 gdb_48191=T pbc="F F F"
O       -0.09450000       0.00710000       0.00250000
C       -0.03480000       1.19000000       0.00810000
C        1.36320000       1.97930000      -0.00070000
C        2.48540000       1.03290000      -0.01620000
N        3.35780000       0.27910000      -0.02830000
C        1.35660000       2.82500000      -1.20580000
N        1.28220000       3.46550000      -2.16300000
C        1.37900000       2.81190000       1.21340000
N        1.32240000       3.44210000       2.17870000
H       -0.89510000       1.88220000       0.01990000
