20
Properties=species:S:1:pos:R:3 gdb_16891=T pbc="F F F"
C        0.55330000       1.33430000       0.14340000
C       -0.03060000      -0.04720000       0.02010000
C        0.04540000      -0.75220000      -1.11150000
C       -0.54190000      -2.12210000      -1.32030000
C       -0.87730000      -2.85010000      -0.03090000
C        0.17890000      -3.01740000       1.03480000
C       -0.97480000      -2.06970000       1.25710000
C       -0.73920000      -0.57000000       1.24880000
H        1.31470000       1.37430000       0.93350000
H        1.01420000       1.66470000      -0.79140000
H       -0.21630000       2.06730000       0.42030000
H        0.54770000      -0.31170000      -1.97080000
H       -1.45460000      -2.02980000      -1.92890000
H        0.14600000      -2.72870000      -1.92650000
H       -1.56880000      -3.67890000      -0.15080000
H        0.20170000      -3.94390000       1.59820000
H        1.15560000      -2.58330000       0.84460000
H       -1.72820000      -2.39660000       1.96810000
H       -0.17570000      -0.27490000       2.14640000
H       -1.70670000      -0.05200000       1.33710000
