20
Properties=species:S:1:pos:R:3 gdb_97195=T pbc="F F F"
C        0.11400000       1.43920000       0.09000000
N        0.08810000      -0.01150000       0.04370000
C        0.45450000      -0.60370000      -1.01930000
O        0.91810000       0.08490000      -2.11060000
C        0.88830000      -0.60380000      -3.36360000
C        1.55220000      -1.97320000      -3.28260000
C        0.99490000      -2.74740000      -2.11300000
C        1.08990000      -4.24320000      -2.14740000
C        0.46050000      -2.06660000      -1.09050000
H        1.08570000       1.78860000       0.46500000
H       -0.05350000       1.91610000      -0.88310000
H       -0.64610000       1.78420000       0.79750000
H       -0.15530000      -0.71740000      -3.68770000
H        1.39720000       0.05530000      -4.07090000
H        1.37990000      -2.51160000      -4.22280000
H        2.64180000      -1.86960000      -3.18060000
H        2.13370000      -4.56560000      -2.25750000
H        0.68660000      -4.69560000      -1.23820000
H        0.54750000      -4.65350000      -3.00900000
H        0.05010000      -2.56270000      -0.21850000
