22
Properties=species:S:1:pos:R:3 gdb_118346=T pbc="F F F"
C        0.66660000      -0.34550000       1.25830000
N        0.10730000      -0.13780000      -0.07090000
C        1.07290000      -0.42390000      -1.12730000
C       -1.22450000      -0.69610000      -0.24010000
C       -1.98430000      -0.12200000      -1.45600000
C       -2.14060000       1.39980000      -1.39090000
O       -2.92580000       1.90670000      -2.45860000
C       -1.32540000      -2.22170000      -0.25980000
O       -0.39670000      -2.98560000      -0.19520000
H        1.56420000       0.27220000       1.36980000
H       -0.05550000      -0.02180000       2.01590000
H        0.94310000      -1.39080000       1.46670000
H        1.39440000      -1.47440000      -1.16150000
H        0.65990000      -0.15830000      -2.10450000
H        1.95690000       0.20300000      -0.96860000
H       -1.80800000      -0.39910000       0.64850000
H       -1.47940000      -0.40330000      -2.38890000
H       -2.98220000      -0.57310000      -1.50010000
H       -2.67340000       1.67380000      -0.47300000
H       -1.15350000       1.87700000      -1.34340000
H       -2.41420000       1.82170000      -3.26910000
H       -2.37480000      -2.60070000      -0.33420000
