15
Properties=species:S:1:pos:R:3 gdb_13913=T pbc="F F F"
N       -0.07140000       1.11350000       0.01990000
H       -0.68600000       0.68080000      -0.66110000
H        1.13040000       0.09400000       0.80810000
H        0.35660000       1.93210000      -0.39740000
C       -0.78710000       1.45580000       1.22970000
C       -1.35660000       0.31180000       2.00940000
O       -1.22200000      -0.94790000       1.43500000
C       -0.14610000       1.05900000       2.56300000
C        1.19140000       0.37340000       2.68820000
O        1.75680000       0.30990000       3.75100000
O        1.69060000      -0.18270000       1.58030000
H       -1.35300000       2.38520000       1.23080000
H       -2.29770000       0.47980000       2.53130000
H       -0.90590000      -1.56670000       2.10220000
H       -0.34590000       1.70040000       3.41260000
