17
Properties=species:S:1:pos:R:3 gdb_1176=T pbc="F F F"
C       -0.08380000       1.54910000       0.13330000
C       -0.00910000       0.02760000      -0.01440000
C        0.73760000      -0.46750000      -1.29130000
C        0.02530000      -0.02280000      -2.58380000
N        2.14550000      -0.05000000      -1.38070000
C        0.73050000      -1.94660000      -1.24350000
N        0.70150000      -3.09960000      -1.17570000
H        0.91170000       2.00520000       0.13680000
H       -0.66730000       2.01420000      -0.66650000
H       -0.56300000       1.80940000       1.08130000
H        0.50230000      -0.40020000       0.85610000
H       -1.01970000      -0.39700000      -0.01470000
H        0.04760000       1.06760000      -2.66600000
H        0.53330000      -0.44300000      -3.45360000
H       -1.01770000      -0.34820000      -2.58740000
H        2.18990000       0.95890000      -1.48690000
H        2.63810000      -0.28250000      -0.52290000
