21
Properties=species:S:1:pos:R:3 gdb_87984=T pbc="F F F"
C        0.06450000       1.58390000      -0.04100000
C        0.04660000       0.07020000       0.07750000
O       -1.30800000      -0.41680000       0.10520000
C        0.93600000      -0.75330000      -0.90770000
C        1.51740000      -1.56060000       0.29240000
C        0.79900000      -0.59490000       1.24230000
C        1.36890000       0.08930000       2.46180000
C        0.19770000      -0.84640000       2.59270000
O       -1.04610000      -0.28100000       2.88010000
H        1.08820000       1.96790000      -0.02560000
H       -0.39750000       1.90540000      -0.98380000
H       -0.48920000       2.03690000       0.78720000
H       -1.79390000       0.00420000      -0.61220000
H        0.36840000      -1.32680000      -1.64350000
H        1.68140000      -0.14390000      -1.42510000
H        1.15130000      -2.58970000       0.34740000
H        2.60790000      -1.57550000       0.36420000
H        2.34320000      -0.23910000       2.81100000
H        1.16000000       1.14470000       2.60230000
H        0.37330000      -1.82150000       3.04910000
H       -1.58460000      -0.39590000       2.08470000
