22
Properties=species:S:1:pos:R:3 gdb_36899=T pbc="F F F"
C       -0.20310000       1.72590000       0.08750000
C       -0.19330000       0.20770000      -0.02760000
C        0.19770000      -0.65610000       1.22050000
C       -1.12980000      -1.41490000       1.08860000
C       -2.28090000      -0.46010000       1.21310000
C       -1.53830000      -0.53310000      -0.09540000
N        1.14920000       2.23790000       0.29130000
C        1.91380000       2.54300000      -0.91340000
C        1.37410000       3.63490000      -0.05620000
H       -0.67800000       2.15990000      -0.81370000
H       -0.80750000       2.03950000       0.94670000
H        0.43560000      -0.07610000      -0.87790000
H        1.08060000      -1.27210000       1.04040000
H        0.34280000      -0.10940000       2.15780000
H       -1.25830000      -2.48340000       1.21110000
H       -3.26750000      -0.91260000       1.19930000
H       -2.20660000       0.41100000       1.86000000
H       -2.04510000      -0.81530000      -1.01110000
H        2.96940000       2.28770000      -0.88660000
H        1.43160000       2.38770000      -1.87800000
H        0.53360000       4.20440000      -0.45080000
H        2.02800000       4.19140000       0.60950000
