18
Properties=species:S:1:pos:R:3 gdb_24612=T pbc="F F F"
C       -0.13250000       1.55330000       0.04230000
C        1.38860000       1.51760000      -0.26760000
N        1.44220000       0.17810000       0.34370000
C       -0.01980000       0.03650000       0.34530000
C        2.29830000      -0.81130000      -0.09950000
C        2.12810000      -2.17890000      -0.06850000
N        3.30400000      -2.68820000      -0.60180000
C        4.09400000      -1.63640000      -0.92500000
N        3.52150000      -0.48590000      -0.63820000
H       -0.38220000       2.15060000       0.92080000
H       -0.78860000       1.83450000      -0.78160000
H        1.62200000       1.51030000      -1.34020000
H        2.02070000       2.26440000       0.22150000
H       -0.44540000      -0.32160000       1.28950000
H       -0.38900000      -0.60320000      -0.47170000
H        1.33260000      -2.81340000       0.28000000
H        3.52260000      -3.66160000      -0.72630000
H        5.07150000      -1.75930000      -1.36660000
