18
Properties=species:S:1:pos:R:3 gdb_111202=T pbc="F F F"
C        0.00170000       1.30370000      -0.00560000
O       -0.10610000      -0.01400000       0.48880000
C       -1.32780000      -0.60380000       0.20950000
C       -1.52970000      -1.37620000      -1.13930000
N       -0.50710000      -2.36770000      -0.63280000
C       -1.44200000      -2.10840000       0.54540000
C       -2.66630000      -2.19890000      -0.41070000
C       -4.01900000      -1.61280000      -0.10510000
O       -4.31180000      -0.98370000       0.88230000
H        0.96440000       1.69530000       0.32970000
H       -0.02890000       1.33360000      -1.10480000
H       -0.80130000       1.95030000       0.38140000
H       -2.16440000       0.02320000       0.52940000
H       -1.53280000      -1.01350000      -2.16810000
H       -0.71320000      -3.29180000      -1.02630000
H       -1.30820000      -2.59300000       1.51220000
H       -2.79510000      -3.18250000      -0.87700000
H       -4.78030000      -1.81180000      -0.89560000
