19
Properties=species:S:1:pos:R:3 gdb_66357=T pbc="F F F"
C        0.00880000       1.52620000       0.05860000
C       -0.00880000      -0.00090000       0.00000000
C        0.69370000      -0.54700000      -1.27300000
N        0.89930000      -1.98690000      -1.25460000
C        1.54480000      -2.41340000      -0.01000000
C        0.82820000      -1.88080000       1.23030000
O        0.67300000      -0.46060000       1.16120000
C       -1.41360000      -0.49150000       0.01340000
N       -2.49520000      -0.89960000       0.00090000
H        1.04660000       1.86850000       0.04940000
H       -0.51870000       1.95260000      -0.79860000
H       -0.46710000       1.87480000       0.97750000
H        0.12580000      -0.26700000      -2.16530000
H        1.67310000      -0.05490000      -1.32420000
H        0.00770000      -2.46250000      -1.36340000
H        1.58910000      -3.50700000       0.01660000
H        2.57670000      -2.03940000      -0.01920000
H       -0.15780000      -2.35840000       1.33680000
H        1.40150000      -2.06660000       2.14290000
