16
Properties=species:S:1:pos:R:3 gdb_18830=T pbc="F F F"
C       -0.00690000       1.50050000       0.07270000
C       -0.10060000       0.01180000      -0.00830000
C       -0.04410000      -0.78470000      -1.08900000
C       -0.03680000      -2.20890000      -0.67780000
C        0.91090000      -2.56630000       0.53030000
O        1.37960000      -1.41580000       1.19370000
C       -0.02060000      -0.89240000       1.20290000
C       -0.53180000      -2.28930000       0.74920000
H        0.91630000       1.81330000       0.57700000
H       -0.01520000       1.95420000      -0.92220000
H       -0.83940000       1.92710000       0.64670000
H        0.08770000      -0.45300000      -2.11230000
H       -0.25230000      -3.01700000      -1.36650000
H        1.52930000      -3.45530000       0.55290000
H       -0.27010000      -0.48960000       2.18420000
H       -1.36150000      -2.87390000       1.12500000
