15
Properties=species:S:1:pos:R:3 gdb_128226=T pbc="F F F"
C        0.07680000       1.44470000       0.00830000
N       -0.06110000       0.00840000       0.00140000
C       -1.23710000      -0.64460000       0.00920000
C       -2.50330000      -0.10620000       0.02090000
N       -3.64450000      -0.86020000       0.02720000
N       -3.60000000      -2.13110000       0.02290000
N       -2.35890000      -2.71040000       0.01180000
C       -1.12530000      -2.10530000       0.00420000
O       -0.06510000      -2.71610000      -0.00520000
H        1.13710000       1.70060000      -0.00170000
H       -0.39580000       1.89820000      -0.87280000
H       -0.37710000       1.88870000       0.90390000
H        0.74900000      -0.59460000      -0.00390000
H       -2.67260000       0.96380000       0.02570000
H       -2.38400000      -3.72160000       0.00910000
