16
Properties=species:S:1:pos:R:3 gdb_124938=T pbc="F F F"
C        0.06000000       1.54170000       0.10830000
C       -0.00850000       0.03820000       0.01630000
C       -1.16470000      -0.67060000      -0.03190000
C       -2.54780000      -0.09660000      -0.00300000
C       -1.09990000      -2.13170000      -0.12100000
O       -2.05220000      -2.86690000      -0.16900000
O        0.16020000      -2.71260000      -0.15250000
N        1.33700000      -1.99170000      -0.10440000
C        1.22230000      -0.71100000      -0.02580000
H        1.09530000       1.88540000       0.16670000
H       -0.40060000       2.01520000      -0.76490000
H       -0.46650000       1.91160000       0.99370000
H       -3.10090000      -0.40240000      -0.89740000
H       -3.10680000      -0.50250000       0.84680000
H       -2.54450000       0.99200000       0.05920000
H        2.17630000      -0.19190000       0.00950000
