20
Properties=species:S:1:pos:R:3 gdb_66225=T pbc="F F F"
C       -0.04360000       1.54820000      -0.15440000
C       -0.02170000       0.04210000       0.00390000
C       -1.30290000      -0.57030000       0.52040000
O       -1.67100000       0.08780000       1.71860000
C       -2.86010000      -0.43140000       2.27690000
C       -3.21250000       0.31060000       3.48050000
C       -3.52720000       0.90600000       4.47450000
C        0.82470000      -0.77240000      -0.90550000
N        1.19900000      -0.60970000       0.51160000
H        0.90700000       1.91300000      -0.55660000
H       -0.84010000       1.86030000      -0.83940000
H       -0.22720000       2.03060000       0.80930000
H       -2.10420000      -0.46060000      -0.23220000
H       -1.14870000      -1.64520000       0.69890000
H       -3.68860000      -0.37020000       1.54940000
H       -2.73680000      -1.50030000       2.52240000
H       -3.79880000       1.43550000       5.35400000
H        0.52760000      -1.78010000      -1.18570000
H        1.39440000      -0.24540000      -1.66690000
H        1.94610000       0.07540000       0.59650000
