19
Properties=species:S:1:pos:R:3 gdb_96990=T pbc="F F F"
C       -0.21840000       1.42120000      -0.04120000
N       -0.26320000      -0.02720000      -0.16990000
C        0.48880000      -0.56820000      -1.02200000
N        1.38900000      -0.11230000      -2.00900000
C        1.82500000      -1.45940000      -2.38860000
C        2.86020000      -2.11790000      -1.46070000
O        1.83790000      -2.55150000      -0.53910000
C        0.76990000      -2.02960000      -1.37900000
C       -0.34990000      -3.00040000      -1.60810000
H        0.51750000       1.71920000       0.71820000
H        0.03260000       1.94060000      -0.97890000
H       -1.19300000       1.78490000       0.29720000
H        2.01090000       0.67920000      -1.90930000
H        1.86150000      -1.65700000      -3.45990000
H        3.38290000      -2.97530000      -1.90360000
H        3.59220000      -1.44430000      -0.99890000
H       -0.87270000      -3.17680000      -0.66280000
H       -1.07190000      -2.59390000      -2.32230000
H        0.02910000      -3.95580000      -1.98090000
