16
Properties=species:S:1:pos:R:3 gdb_18810=T pbc="F F F"
C       -0.01550000       1.50800000      -0.00610000
C        1.45670000       1.99890000       0.02980000
C        2.25350000       0.94240000       0.79060000
O        1.48930000       0.56690000       1.98460000
C        0.91360000      -0.50750000       1.23790000
C        0.02940000      -0.01740000       0.02470000
O        1.06110000      -0.46250000      -0.91780000
C        1.99410000      -0.48410000       0.16490000
H       -0.56670000       1.87240000       0.86620000
H       -0.53160000       1.86040000      -0.90340000
H        1.85760000       2.09550000      -0.98380000
H        1.54050000       2.97240000       0.52060000
H        3.27800000       1.22510000       1.04200000
H        0.57200000      -1.34710000       1.84370000
H       -0.92540000      -0.51400000      -0.16110000
H        2.83220000      -1.16750000       0.02600000
