17
Properties=species:S:1:pos:R:3 gdb_41371=T pbc="F F F"
C        0.07000000       1.41700000       0.30210000
O        1.41720000       1.55280000      -0.25040000
C        1.40340000       0.16400000      -0.66440000
C        1.88480000      -0.82250000       0.42690000
O        0.50880000      -0.99380000       0.89420000
C        0.02250000      -0.07220000      -0.10490000
C       -0.87400000      -0.62010000      -1.21440000
C        0.08540000      -0.60210000      -2.40420000
C        1.32280000      -0.17280000      -2.11580000
H        0.04380000       1.60220000       1.38060000
H       -0.63980000       2.07570000      -0.21230000
H        2.30680000      -1.77020000       0.07490000
H        2.53030000      -0.37810000       1.19090000
H       -1.21190000      -1.63530000      -0.97690000
H       -1.77040000      -0.01670000      -1.40190000
H       -0.23310000      -0.92580000      -3.39080000
H        2.13880000      -0.09420000      -2.82450000
