20
Properties=species:S:1:pos:R:3 gdb_92378=T pbc="F F F"
C        0.19840000       1.60970000      -0.07020000
C        0.06840000       0.10230000       0.07200000
C        0.85160000      -0.83990000      -0.89100000
C        1.29520000      -1.72770000       0.30510000
C        2.72310000      -1.45350000       0.82210000
C        2.19700000      -0.24440000       1.64850000
C        0.71860000      -0.62900000       1.29340000
C       -0.14170000      -0.93630000       2.41040000
N       -0.83890000      -1.18730000       3.30000000
H        1.24440000       1.93240000      -0.08720000
H       -0.26050000       1.94270000      -1.00730000
H       -0.30410000       2.13140000       0.75120000
H       -0.99130000      -0.17040000       0.05680000
H        0.23990000      -1.33660000      -1.64630000
H        1.69240000      -0.35620000      -1.39880000
H        0.92720000      -2.75300000       0.31220000
H        3.10040000      -2.25550000       1.46110000
H        3.47410000      -1.23860000       0.05710000
H        2.41540000      -0.29030000       2.71590000
H        2.49410000       0.74040000       1.28300000
