20
Properties=species:S:1:pos:R:3 gdb_6833=T pbc="F F F"
C       -0.28030000       1.57040000      -0.07740000
C       -0.07240000       0.06320000       0.04650000
C       -1.30490000      -0.70110000      -0.44000000
C        1.24910000      -0.50520000      -0.53180000
O        1.56390000      -1.17360000       0.70890000
C        0.46820000      -0.50760000       1.39370000
C        1.03480000       0.41890000       2.45900000
O        1.81100000      -0.33180000       3.37420000
H        0.59680000       2.14070000       0.23970000
H       -0.48890000       1.83850000      -1.11930000
H       -1.13520000       1.90360000       0.52140000
H       -1.53040000      -0.45640000      -1.48420000
H       -1.15200000      -1.78280000      -0.37140000
H       -2.18530000      -0.44610000       0.16050000
H        1.15370000      -1.21310000      -1.36340000
H        2.00160000       0.25140000      -0.79170000
H       -0.18490000      -1.24600000       1.87690000
H        1.63450000       1.21650000       1.99400000
H        0.22880000       0.89320000       3.03000000
H        2.42200000      -0.84690000       2.83200000
