18
Properties=species:S:1:pos:R:3 gdb_95198=T pbc="F F F"
O        0.04970000       1.42940000       0.07480000
C        0.02850000       0.01370000      -0.02680000
C        0.76650000      -0.61440000       1.16570000
N        0.14410000      -0.04560000       2.36390000
C       -1.24230000      -0.42380000       2.56540000
C       -2.29990000       0.58240000       2.22580000
C       -2.08120000      -0.62330000       1.31300000
C       -1.41500000      -0.52300000      -0.02320000
O       -1.94360000      -0.93500000      -1.03080000
H        0.15640000       1.60790000       1.02240000
H        0.47820000      -0.27130000      -0.98220000
H        0.71250000      -1.71400000       1.10900000
H        1.82090000      -0.32040000       1.14750000
H        0.69300000      -0.20840000       3.19630000
H       -1.43590000      -1.11050000       3.38630000
H       -3.22540000       0.58970000       2.79050000
H       -1.97050000       1.54880000       1.86560000
H       -2.86100000      -1.37610000       1.33270000
