17
Properties=species:S:1:pos:R:3 gdb_99548=T pbc="F F F"
C        0.25240000       1.10510000      -0.53500000
N       -0.35480000       0.04510000       0.27500000
C        0.51480000      -0.52020000       1.32070000
C       -0.24540000      -0.77650000       2.53950000
C       -0.88240000      -0.98030000       3.53730000
C        1.11050000      -1.86910000       0.77490000
O        0.10700000      -2.62350000       0.16390000
C        2.23150000      -1.59100000      -0.15770000
N        3.10340000      -1.36640000      -0.88270000
H        1.10040000       0.70710000      -1.09630000
H       -0.48770000       1.46550000      -1.25390000
H        0.60560000       1.95980000       0.06270000
H       -1.21190000       0.37370000       0.70040000
H        1.34820000       0.15840000       1.55730000
H       -1.43840000      -1.16230000       4.42420000
H        1.51430000      -2.44390000       1.61410000
H       -0.45270000      -1.95590000      -0.27510000
