9
Properties=species:S:1:pos:R:3 gdb_753=T pbc="F F F"
N       -0.09880000       1.33020000       0.03520000
C        0.01340000       0.06160000       0.04220000
N        1.07780000      -0.83320000       0.04100000
N        0.66350000      -2.13620000       0.05150000
N       -0.60110000      -2.13960000       0.05920000
N       -1.02980000      -0.85120000       0.05390000
H        0.80670000       1.79070000       0.02700000
H        2.06060000      -0.62580000       0.03440000
H       -2.01170000      -0.63740000       0.05870000
