17
Properties=species:S:1:pos:R:3 gdb_3607=T pbc="F F F"
C       -0.03590000       1.51260000       0.02160000
C        1.51330000       1.55250000       0.01430000
C        2.14170000       1.18990000       1.38380000
C        1.84260000      -0.31040000       1.13620000
C        0.35130000      -0.67970000       1.34150000
C       -0.00720000      -0.03620000      -0.02170000
C        1.52680000       0.02590000      -0.36880000
H       -0.55610000       1.99140000       0.85890000
H       -0.43730000       1.91750000      -0.91290000
H        1.99310000       2.34170000      -0.56590000
H        3.22050000       1.37530000       1.37540000
H        1.71690000       1.65500000       2.28070000
H        2.58970000      -1.03320000       1.46640000
H        0.21360000      -1.76500000       1.30440000
H       -0.15230000      -0.29650000       2.23620000
H       -0.76100000      -0.53630000      -0.63110000
H        2.00700000      -0.41380000      -1.24010000
