15
Properties=species:S:1:pos:R:3 gdb_19654=T pbc="F F F"
O       -0.02990000      -0.02540000      -0.00510000
C       -0.02410000       1.16600000       0.04500000
C       -1.04980000       2.30530000       0.00590000
C       -0.81170000       2.88620000       1.42870000
C        0.63550000       3.34140000       1.12290000
C        0.36800000       4.29270000      -0.05600000
N       -0.01610000       3.07300000      -0.85400000
C        1.00680000       2.28530000       0.00520000
H       -2.05880000       2.20510000      -0.38540000
H       -1.46710000       3.72260000       1.68480000
H       -0.89520000       2.12430000       2.20910000
H        1.29230000       3.58250000       1.95900000
H       -0.40130000       5.06460000       0.04920000
H        1.26810000       4.72450000      -0.50060000
H        2.03310000       2.19490000      -0.34580000
