18
Properties=species:S:1:pos:R:3 gdb_15007=T pbc="F F F"
C       -0.05520000       1.37770000      -0.00450000
O       -0.02570000      -0.04040000      -0.05270000
C        0.61880000      -0.55710000      -1.15950000
C        0.71420000      -2.07260000      -0.99780000
O        1.27640000      -2.66000000      -2.15950000
C        0.52650000      -2.33750000      -3.32020000
C        0.43730000      -0.82500000      -3.48760000
O       -0.13300000      -0.24100000      -2.32530000
H        0.96240000       1.79510000      -0.02230000
H       -0.62460000       1.79480000      -0.84150000
H       -0.53650000       1.65080000       0.93660000
H        1.63450000      -0.12570000      -1.27240000
H        1.36670000      -2.32930000      -0.16000000
H       -0.29700000      -2.46100000      -0.80050000
H        1.04270000      -2.79840000      -4.16770000
H       -0.48910000      -2.75990000      -3.25000000
H        1.44410000      -0.41480000      -3.67010000
H       -0.20850000      -0.55460000      -4.32830000
