13
Properties=species:S:1:pos:R:3 gdb_130737=T pbc="F F F"
O       -0.08560000      -0.03380000       0.36690000
C       -0.07210000       1.15530000       0.14380000
N       -1.10140000       2.07560000       0.05240000
N       -0.65160000       3.33260000      -0.20460000
N        0.61460000       3.28410000      -0.28860000
N        1.00900000       1.99880000      -0.08440000
C        2.40180000       1.58880000      -0.13260000
C        2.95570000       1.56330000      -1.48270000
C        3.42600000       1.54130000      -2.58660000
H       -2.08610000       1.89860000       0.15670000
H        2.98390000       2.25760000       0.50940000
H        2.42140000       0.58770000       0.31160000
H        3.83820000       1.52180000      -3.56540000
