19
Properties=species:S:1:pos:R:3 gdb_87426=T pbc="F F F"
O       -0.01020000       1.36400000       0.09110000
C       -0.02310000      -0.03530000       0.00770000
C       -0.46420000      -0.76570000       1.25540000
C       -1.33370000      -0.75500000       0.03040000
C       -2.73870000      -0.20620000      -0.03690000
C       -3.29520000      -0.59490000      -1.42290000
C       -2.19490000      -1.36080000      -2.15870000
C       -1.83750000      -1.96660000      -0.77010000
C       -3.30250000      -1.58760000      -0.28830000
H       -0.36410000       1.70900000      -0.73540000
H        0.80070000      -0.47080000      -0.56110000
H        0.05950000      -1.67690000       1.52780000
H       -0.76430000      -0.14400000       2.09280000
H       -3.17590000       0.59470000       0.54450000
H       -4.14170000      -0.06820000      -1.84560000
H       -2.61960000      -2.11090000      -2.83180000
H       -1.40740000      -0.80150000      -2.67860000
H       -1.35520000      -2.93810000      -0.68170000
H       -4.09330000      -2.14100000       0.19620000
