17
Properties=species:S:1:pos:R:3 gdb_58138=T pbc="F F F"
C        0.10390000       1.63830000      -0.10710000
C        0.08780000       0.12010000      -0.00950000
O        0.78130000      -0.25130000       1.15920000
C       -1.36330000      -0.45640000       0.00250000
O       -2.04800000      -0.13720000      -1.20810000
C       -1.33450000      -2.00160000       0.02140000
O       -0.41730000      -2.66970000       0.42280000
C       -2.12550000      -0.03990000       1.17850000
C       -2.80330000       0.29490000       2.11380000
H        1.13950000       1.98630000      -0.12610000
H       -0.39290000       1.97500000      -1.02040000
H       -0.39080000       2.08300000       0.76120000
H        0.55960000      -0.30490000      -0.90990000
H        0.79860000      -1.21820000       1.17430000
H       -2.57900000       0.65050000      -1.05350000
H       -2.25900000      -2.44810000      -0.39630000
H       -3.38190000       0.59840000       2.95200000
