18
Properties=species:S:1:pos:R:3 gdb_98874=T pbc="F F F"
C        0.80510000       1.43910000       0.17580000
O        0.91220000       0.01290000       0.25840000
C       -0.11960000      -0.60950000       0.86120000
O       -1.10000000      -0.04230000       1.27090000
C        0.13960000      -2.11550000       0.92320000
N        1.34300000      -2.40170000       1.72310000
C        1.08750000      -3.57390000       2.57520000
C       -0.41240000      -3.69160000       2.55080000
C       -0.94070000      -2.87950000       1.64260000
H        0.75040000       1.87900000       1.17480000
H        1.70440000       1.77630000      -0.34010000
H       -0.08860000       1.72750000      -0.38340000
H        0.22900000      -2.45590000      -0.12560000
H        2.16960000      -2.49800000       1.15120000
H        1.56040000      -4.49840000       2.19880000
H        1.47730000      -3.41560000       3.59110000
H       -0.95670000      -4.36540000       3.20070000
H       -1.98880000      -2.74800000       1.41280000
