17
Properties=species:S:1:pos:R:3 gdb_126841=T pbc="F F F"
C       -0.02230000       1.55280000      -0.00750000
C       -0.03770000       0.02570000       0.07450000
N       -1.37700000      -0.52850000      -0.02850000
N       -2.06050000      -0.93800000       1.08460000
N       -3.23170000      -1.35150000       0.69710000
C       -3.33610000      -1.21830000      -0.65370000
N       -4.43180000      -1.55140000      -1.48350000
C       -2.15140000      -0.69030000      -1.11660000
O       -1.73990000      -0.36970000      -2.35450000
H        1.00300000       1.92080000       0.09270000
H       -0.41660000       1.89580000      -0.96810000
H       -0.62660000       1.98650000       0.79380000
H        0.57270000      -0.41150000      -0.72160000
H        0.35100000      -0.32220000       1.03400000
H       -5.26450000      -1.03350000      -1.21810000
H       -4.66560000      -2.53700000      -1.40490000
H       -2.47570000      -0.59740000      -2.94200000
