19
Properties=species:S:1:pos:R:3 gdb_72587=T pbc="F F F"
C       -0.33100000       1.45260000       0.25960000
C        0.06600000       0.02310000      -0.02140000
C        1.15890000      -0.29050000      -1.06730000
C        1.82590000      -1.30580000      -0.09730000
C        0.87570000      -0.89420000       1.05970000
O        1.51710000      -0.48990000       2.21680000
C       -0.41280000      -1.66940000       1.22260000
O       -0.85150000      -2.22920000       2.19360000
C       -1.07460000      -1.04530000      -0.01470000
H        0.54770000       2.06390000       0.48880000
H       -0.83660000       1.90070000      -0.60430000
H       -1.01480000       1.51920000       1.11340000
H        0.80060000      -0.68360000      -2.02270000
H        1.80350000       0.56900000      -1.26980000
H        1.78640000      -2.35890000      -0.38660000
H        2.85590000      -1.05840000       0.16510000
H        0.93550000      -0.70380000       2.95850000
H       -2.07960000      -0.66850000       0.19290000
H       -1.11520000      -1.68960000      -0.89730000
