13
Properties=species:S:1:pos:R:3 gdb_21703=T pbc="F F F"
N       -0.13970000       1.48150000      -0.06290000
C        0.02170000       0.14340000      -0.00590000
N       -0.95500000      -0.71490000      -0.00780000
H       -1.91880000      -0.38430000      -0.01260000
C       -0.92370000      -2.11160000      -0.00550000
C        0.08930000      -3.06410000      -0.02600000
N       -0.52720000      -4.25420000      -0.00560000
N       -1.85860000      -4.02760000       0.02490000
N       -2.12070000      -2.73280000       0.02530000
H        0.65210000       2.07480000       0.11330000
H       -1.04980000       1.90310000       0.03350000
H        1.03460000      -0.23910000       0.00690000
H        1.16460000      -2.96900000      -0.05570000
