23
Properties=species:S:1:pos:R:3 gdb_95762=T pbc="F F F"
C        0.05640000       1.53160000       0.07510000
C        0.01240000       0.01480000      -0.03080000
C        0.75850000      -0.51350000      -1.25520000
O        0.82050000      -1.92980000      -1.23810000
C        1.48270000      -2.38700000      -0.07170000
C        0.75280000      -1.93550000       1.20380000
C       -0.61480000      -2.62530000       1.32670000
C        1.61350000      -2.20310000       2.43590000
O        0.60490000      -0.50450000       1.15740000
H        1.09160000       1.88300000       0.12790000
H       -0.42800000       1.99510000      -0.79010000
H       -0.46110000       1.86060000       0.97980000
H       -1.03570000      -0.31650000      -0.09960000
H        0.24410000      -0.23090000      -2.17870000
H        1.77710000      -0.08870000      -1.27360000
H        1.51480000      -3.47880000      -0.13720000
H        2.51680000      -2.00510000      -0.05070000
H       -0.48570000      -3.68690000       1.56060000
H       -1.19530000      -2.16380000       2.13060000
H       -1.18220000      -2.55890000       0.39570000
H        2.55870000      -1.65740000       2.36660000
H        1.09350000      -1.86930000       3.33830000
H        1.82950000      -3.27130000       2.53680000
