12
Properties=species:S:1:pos:R:3 gdb_129144=T pbc="F F F"
N       -0.12810000       1.40750000       0.13130000
C       -0.03080000       0.15350000       0.00790000
N        1.23180000      -0.50360000      -0.08720000
N        1.44780000      -1.40880000      -0.91180000
N        0.49120000      -1.86760000      -1.80410000
N       -0.86850000      -1.76370000      -2.05280000
N       -1.66990000      -1.24910000      -1.25340000
C       -1.25590000      -0.72220000       0.00590000
N       -1.90260000      -0.93790000       1.07010000
H        0.80500000       1.83060000       0.13960000
H        0.92190000      -2.46850000      -2.49140000
H       -2.71580000      -1.52830000       0.87030000
