21
Properties=species:S:1:pos:R:3 gdb_107680=T pbc="F F F"
O        0.16500000       1.34590000       0.28170000
C        0.00440000       0.02000000      -0.20260000
C       -1.41740000      -0.48380000      -0.05750000
C       -1.77260000      -1.11570000       1.28020000
C       -1.61330000      -1.97760000       0.05120000
O       -2.75230000      -2.59630000      -0.47310000
C       -3.39950000      -1.88630000      -1.52130000
C       -3.74770000      -0.46410000      -1.09160000
C       -2.45740000       0.32490000      -0.82500000
H       -0.11980000       1.35000000       1.20200000
H        0.28650000       0.06180000      -1.26110000
H        0.70140000      -0.67330000       0.29550000
H       -1.00870000      -1.16170000       2.05100000
H       -2.78450000      -1.00270000       1.65330000
H       -0.73450000      -2.61670000      -0.01380000
H       -2.76370000      -1.86240000      -2.42220000
H       -4.29470000      -2.46890000      -1.75580000
H       -4.33640000       0.03230000      -1.87070000
H       -4.37700000      -0.51350000      -0.19520000
H       -2.66600000       1.26760000      -0.30900000
H       -2.01440000       0.59940000      -1.79190000
