15
Properties=species:S:1:pos:R:3 gdb_81419=T pbc="F F F"
O        0.00690000       1.36350000      -0.07030000
C        0.00770000      -0.02320000      -0.00620000
C       -0.01680000      -0.65070000       1.46010000
O       -1.41900000      -0.25710000       1.52510000
C       -1.43150000      -0.63050000       0.11260000
C       -1.08910000      -2.12040000       0.17840000
C       -1.62650000      -3.20710000      -0.62830000
O       -2.40920000      -3.05470000      -1.54130000
C       -0.11410000      -2.12700000       1.11140000
H        0.87520000       1.66230000      -0.35500000
H        0.68730000      -0.48670000      -0.73110000
H        0.60190000      -0.29920000       2.28360000
H       -2.28630000      -0.28220000      -0.46060000
H       -1.25830000      -4.21780000      -0.34490000
H        0.49620000      -2.94280000       1.47390000
