16
Properties=species:S:1:pos:R:3 gdb_26590=T pbc="F F F"
C       -0.00530000       1.55240000       0.03960000
C        0.00590000       0.04800000       0.02070000
C       -1.14260000      -0.69310000       0.05780000
N       -2.39550000      -0.14640000       0.14380000
N       -1.15450000      -2.08720000       0.05220000
C       -0.01300000      -2.65270000       0.00800000
O        1.18110000      -2.05740000      -0.03290000
C        1.26990000      -0.64060000      -0.03160000
N        2.41790000      -0.09950000      -0.07590000
H        1.01650000       1.92650000       0.10260000
H       -0.45950000       1.97090000      -0.86950000
H       -0.57120000       1.93850000       0.89670000
H       -2.51900000       0.81090000      -0.14080000
H       -3.15360000      -0.77440000      -0.07000000
H        0.07970000      -3.73520000      -0.00200000
H        3.15390000      -0.80270000      -0.10540000
