15
Properties=species:S:1:pos:R:3 gdb_34189=T pbc="F F F"
C       -0.01690000      -1.12990000       0.00520000
C       -0.04790000       0.07270000      -0.02240000
C       -0.05780000       1.48950000      -0.05910000
O       -1.11520000       2.20990000       0.53180000
C       -0.72170000       3.40720000      -0.27710000
C        0.15350000       4.21770000       0.64010000
C        1.29810000       3.53750000       0.81410000
C        1.30810000       2.34660000      -0.05950000
C        0.24110000       2.51170000      -1.10680000
H        0.00040000      -2.19140000       0.03020000
H       -1.59960000       3.86030000      -0.73240000
H       -0.18950000       5.07430000       1.20420000
H        2.06970000       3.75120000       1.54310000
H        2.20010000       1.77330000      -0.27540000
H        0.35870000       2.43730000      -2.18020000
