19
Properties=species:S:1:pos:R:3 gdb_114228=T pbc="F F F"
O        0.11580000       1.35550000       0.20020000
C        0.04580000      -0.05460000       0.05290000
C       -1.43030000      -0.44420000      -0.01610000
C       -1.65450000      -1.96650000      -0.22160000
C       -2.72230000      -2.36190000       0.80470000
C       -3.77250000      -3.36490000       0.56550000
O       -2.64740000      -3.67220000       1.39010000
C       -2.88870000      -1.18730000       1.69920000
C       -2.18900000      -0.14260000       1.25870000
H        1.03810000       1.60410000       0.30890000
H        0.55670000      -0.38700000      -0.86540000
H        0.51890000      -0.57230000       0.90290000
H       -1.86730000       0.12840000      -0.84550000
H       -1.94280000      -2.21500000      -1.24550000
H       -0.74100000      -2.52780000       0.00510000
H       -4.72870000      -3.29010000       1.08390000
H       -3.80830000      -3.88200000      -0.39370000
H       -3.51660000      -1.22170000       2.58170000
H       -2.14720000       0.83600000       1.72080000
