16
Properties=species:S:1:pos:R:3 gdb_73345=T pbc="F F F"
O        0.19710000       1.37540000      -0.22610000
C        0.09140000      -0.00310000      -0.13520000
C        0.83360000      -0.75020000      -1.25320000
C        0.36870000      -2.21540000      -1.10160000
C       -0.88580000      -2.12570000      -0.23570000
C       -1.28870000      -0.74320000      -0.00580000
N       -0.75060000      -1.59740000       1.17340000
C        0.34830000      -0.65920000       1.22380000
O        1.01430000      -0.34890000       2.16710000
H        0.32540000       1.72770000       0.66300000
H        0.52690000      -0.32270000      -2.21330000
H        1.91460000      -0.62450000      -1.15690000
H        0.12400000      -2.67150000      -2.06490000
H        1.12490000      -2.84770000      -0.62600000
H       -1.61350000      -2.92950000      -0.26580000
H       -2.27340000      -0.30070000       0.05160000
