16
Properties=species:S:1:pos:R:3 gdb_126122=T pbc="F F F"
C        0.03210000       1.55170000       0.01070000
C       -0.04210000       0.02690000       0.00390000
C       -1.46900000      -0.50540000       0.01260000
O       -2.43580000       0.22940000       0.02380000
C       -1.65020000      -1.97110000       0.00760000
C       -0.74190000      -2.99060000      -0.00430000
O       -1.35570000      -4.17230000      -0.00420000
N       -2.74530000      -3.96510000       0.00810000
C       -2.89710000      -2.66990000       0.01410000
H        1.07310000       1.88560000       0.00390000
H       -0.47300000       1.97030000      -0.86320000
H       -0.45880000       1.96170000       0.89660000
H        0.46740000      -0.38940000      -0.87610000
H        0.48130000      -0.39790000       0.87160000
H        0.33700000      -3.02170000      -0.01310000
H       -3.88790000      -2.24030000       0.02380000
