16
Properties=species:S:1:pos:R:3 gdb_81906=T pbc="F F F"
C       -0.08790000       1.40860000      -0.06680000
N       -0.01580000      -0.02750000       0.09800000
C       -1.18670000      -0.86490000       0.06480000
C       -1.42200000      -1.61210000      -1.21310000
C       -0.71520000      -2.29170000      -0.03250000
C        0.77760000      -2.22840000       0.00770000
O        1.56310000      -3.13310000       0.07960000
C        1.16430000      -0.72250000       0.00430000
O        2.27820000      -0.26020000      -0.08510000
H        0.93550000       1.78730000      -0.08000000
H       -0.58630000       1.67680000      -1.00660000
H       -0.63560000       1.86950000       0.76230000
H       -2.00560000      -0.57260000       0.71300000
H       -2.41920000      -1.98050000      -1.42790000
H       -0.83560000      -1.33400000      -2.08230000
H       -1.21560000      -3.11070000       0.46630000
