14
Properties=species:S:1:pos:R:3 gdb_128065=T pbc="F F F"
C        0.05520000       1.41320000      -0.01990000
N       -0.07520000      -0.03010000       0.05020000
C       -1.29420000      -0.61000000      -0.00820000
N       -2.40030000       0.00260000      -0.05860000
N       -1.19150000      -2.06540000       0.00750000
N       -0.05300000      -2.74850000       0.02670000
N       -0.40080000      -3.99470000       0.02530000
N       -1.75030000      -4.07090000       0.00560000
N       -2.24110000      -2.87350000      -0.00650000
H        1.10370000       1.67350000       0.13110000
H       -0.27960000       1.80230000      -0.98800000
H       -0.54960000       1.88440000       0.75930000
H        0.73720000      -0.61890000      -0.01780000
H       -3.19150000      -0.63450000      -0.06830000
