19
Properties=species:S:1:pos:R:3 gdb_101109=T pbc="F F F"
O        0.10340000       1.35800000      -0.16140000
C        0.07110000      -0.01530000       0.15840000
C       -1.36480000      -0.54820000       0.07160000
O       -1.92440000      -0.19230000      -1.19360000
C       -1.44920000      -2.03870000       0.24580000
C       -0.76250000      -3.01990000       1.23300000
C       -1.40800000      -3.82310000       0.07920000
C       -2.68920000      -2.96950000       0.19890000
O       -0.86340000      -2.83200000      -0.88330000
H       -0.46540000       1.44970000      -0.93740000
H        0.71190000      -0.61040000      -0.51290000
H        0.45800000      -0.12690000       1.17720000
H       -1.98060000      -0.04880000       0.82880000
H       -1.63020000      -0.87020000      -1.81770000
H        0.32760000      -2.99920000       1.23240000
H       -1.19070000      -3.12090000       2.23290000
H       -1.29520000      -4.87550000      -0.17800000
H       -3.28940000      -3.06450000       1.10690000
H       -3.29050000      -2.89620000      -0.70720000
