18
Properties=species:S:1:pos:R:3 gdb_78817=T pbc="F F F"
C        0.03730000       1.60260000      -0.09510000
C        0.08640000       0.08550000      -0.08020000
C        0.70460000      -0.75620000      -1.21840000
C        1.19220000      -1.70580000      -0.05960000
C        2.31720000      -0.76370000       0.12100000
C        2.17270000      -0.22050000      -1.31410000
C        2.99130000      -0.94660000      -2.26720000
C        3.67360000      -1.54380000      -3.05710000
N        1.03850000      -0.56810000       0.88830000
H        1.01700000       2.05390000      -0.26920000
H       -0.64780000       1.95730000      -0.87280000
H       -0.32760000       1.96880000       0.86980000
H       -0.90500000      -0.31180000       0.16400000
H        0.16660000      -1.02030000      -2.12640000
H        1.03860000      -2.74530000       0.19440000
H        3.22420000      -0.86760000       0.70060000
H        2.28960000       0.85750000      -1.46580000
H        4.27680000      -2.06780000      -3.75630000
