18
Properties=species:S:1:pos:R:3 gdb_17676=T pbc="F F F"
C       -0.05010000       1.51420000       0.05390000
C        0.01880000       0.00470000       0.04020000
C        1.33010000      -0.70450000      -0.24280000
C        0.75240000      -0.74400000       1.14010000
O        1.44430000      -0.00910000       2.10850000
C        0.16300000      -2.01130000       1.67630000
C        0.78340000      -2.74000000       2.78780000
O       -0.36230000      -1.90000000       3.00850000
H        0.82700000       1.93480000       0.55180000
H       -0.09580000       1.91710000      -0.96350000
H       -0.93870000       1.86370000       0.59120000
H       -0.87030000      -0.49180000      -0.34290000
H        1.32830000      -1.61010000      -0.84060000
H        2.21280000      -0.08500000      -0.36210000
H        0.85110000       0.03980000       2.87090000
H       -0.47500000      -2.56150000       0.98420000
H        0.60030000      -3.80680000       2.90270000
H        1.71400000      -2.36700000       3.20790000
