21
Properties=species:S:1:pos:R:3 gdb_108863=T pbc="F F F"
C       -0.10630000       1.33100000      -0.01570000
O        0.10420000      -0.08270000      -0.04240000
C        0.68850000      -0.58910000       1.04730000
N        1.04310000       0.07080000       2.08410000
C        1.65880000      -0.91520000       2.99110000
C        1.20430000      -0.72910000       4.43460000
C        1.29300000      -2.30190000       2.38750000
N        0.95360000      -1.94930000       1.00970000
C        0.18610000      -2.86920000       0.19740000
H        0.84590000       1.85970000       0.07790000
H       -0.59130000       1.57640000      -0.96120000
H       -0.74330000       1.60860000       0.82820000
H        2.75020000      -0.78220000       2.94940000
H        0.11770000      -0.83970000       4.51220000
H        1.67560000      -1.46660000       5.09390000
H        1.46880000       0.27030000       4.79050000
H        2.11120000      -3.02730000       2.42850000
H        0.42030000      -2.74300000       2.90030000
H       -0.76500000      -3.15910000       0.67430000
H       -0.03330000      -2.40560000      -0.76490000
H        0.76720000      -3.77970000       0.01990000
