19
Properties=species:S:1:pos:R:3 gdb_94233=T pbc="F F F"
C        0.01400000       1.66890000       0.11570000
C       -0.01850000       0.15160000       0.02240000
C        1.05150000      -0.47510000      -0.91930000
C        1.94600000      -0.71420000       0.32870000
C        0.68760000      -0.57000000       1.20710000
O        0.88280000       0.11410000       2.41530000
O       -1.38010000      -0.30680000      -0.11680000
C       -1.96190000      -0.22260000      -1.32470000
O       -3.09710000      -0.54590000      -1.51870000
H        1.02870000       2.02500000       0.30930000
H       -0.33910000       2.12360000      -0.81540000
H       -0.62430000       2.01080000       0.93450000
H        0.69910000      -1.41330000      -1.35460000
H        1.44810000       0.16130000      -1.71270000
H        2.49510000      -1.65430000       0.39070000
H        2.63560000       0.11390000       0.50850000
H        0.20030000      -1.54240000       1.35710000
H        0.08110000       0.04230000       2.94340000
H       -1.28580000       0.16110000      -2.11140000
