19
Properties=species:S:1:pos:R:3 gdb_108129=T pbc="F F F"
O        0.09470000       1.42490000      -0.09370000
C        0.05320000       0.00980000       0.05270000
C       -1.35460000      -0.52380000       0.06920000
C       -2.33410000      -0.37490000       1.25100000
C       -3.13660000      -1.42520000       0.45560000
O       -3.55650000      -0.67400000      -0.69380000
C       -2.24890000      -0.45190000      -1.24740000
C       -1.80690000      -1.88920000      -1.60640000
C       -1.77400000      -2.04110000      -0.07910000
H       -0.38100000       1.80880000       0.65000000
H        0.60820000      -0.38770000      -0.80420000
H        0.58780000      -0.31370000       0.96060000
H       -1.89490000      -0.77880000       2.16850000
H       -2.83480000       0.57850000       1.44220000
H       -3.95780000      -2.00950000       0.86690000
H       -2.24450000       0.38880000      -1.93780000
H       -2.50910000      -2.48160000      -2.19730000
H       -0.80260000      -1.93930000      -2.03380000
H       -1.31050000      -2.86060000       0.46790000
