15
Properties=species:S:1:pos:R:3 gdb_62290=T pbc="F F F"
O       -0.03170000       1.36180000       0.07630000
C        0.01050000      -0.04420000      -0.02910000
C        0.85610000      -0.61510000       1.03240000
N        1.55100000      -1.04950000       1.84790000
C       -1.42670000      -0.54320000      -0.20410000
C       -1.31860000      -0.43660000      -1.67760000
C        0.24200000      -0.55500000      -1.48940000
C       -0.01100000      -2.06340000      -1.37130000
N       -1.45420000      -1.77700000      -1.05020000
H        0.87280000       1.69580000       0.06810000
H       -2.25980000      -0.36210000       0.46040000
H       -1.97130000      -0.03160000      -2.43710000
H        1.03830000      -0.10990000      -2.08300000
H        0.02790000      -2.58490000      -2.32990000
H        0.53850000      -2.62980000      -0.61240000
