15
Properties=species:S:1:pos:R:3 gdb_31298=T pbc="F F F"
C       -0.06090000       1.47190000       0.08330000
N       -0.03550000       0.04180000      -0.17300000
C       -1.17140000      -0.70680000      -0.07000000
C       -1.27740000      -2.09880000      -0.00260000
N       -2.65410000      -2.34100000       0.03260000
C       -3.26790000      -1.14390000      -0.00660000
N       -2.41480000      -0.13750000      -0.06570000
C       -0.29640000      -3.09520000       0.03240000
N        0.54180000      -3.90040000       0.06400000
H        0.89700000       1.89870000      -0.22180000
H       -0.85500000       1.93180000      -0.50720000
H       -0.23910000       1.71760000       1.13980000
H        0.82010000      -0.44010000       0.05390000
H       -3.08650000      -3.24820000       0.08280000
H       -4.34310000      -1.04550000       0.01160000
