18
Properties=species:S:1:pos:R:3 gdb_84517=T pbc="F F F"
O        0.18260000       1.43290000      -0.09610000
C        0.05560000       0.01770000      -0.07790000
C        0.76370000      -0.61760000       1.12160000
C       -0.08760000      -1.21850000       1.97190000
C       -1.46250000      -1.20710000       1.41710000
C       -2.78160000      -0.50570000       1.79540000
C       -2.68590000       0.29310000       0.44140000
C       -1.38280000      -0.46410000       0.12010000
N       -1.69330000      -1.89700000       0.11670000
H        0.03870000       1.74370000       0.80470000
H        0.48530000      -0.31380000      -1.03080000
H        1.84310000      -0.58060000       1.22760000
H        0.19570000      -1.69020000       2.90700000
H       -3.64320000      -1.16570000       1.91500000
H       -2.69140000       0.13810000       2.67270000
H       -3.49750000       0.14900000      -0.27500000
H       -2.52030000       1.36120000       0.59170000
H       -0.84690000      -2.41740000      -0.10680000
