18
Properties=species:S:1:pos:R:3 gdb_3011=T pbc="F F F"
C        0.03080000       1.44850000      -0.23560000
C        0.12130000      -0.04780000       0.06430000
C        0.79470000      -0.32320000       1.41670000
O        0.04920000       0.22010000       2.48760000
N       -1.22990000      -0.61860000       0.14720000
C       -1.91730000      -0.90170000      -1.10520000
C       -1.39000000      -2.01100000      -0.26360000
H        1.03230000       1.87380000      -0.35200000
H       -0.52650000       1.63290000      -1.15870000
H       -0.46930000       1.96660000       0.58580000
H        0.71150000      -0.54530000      -0.72750000
H        0.92940000      -1.41150000       1.53520000
H        1.78820000       0.13720000       1.44410000
H       -0.87040000      -0.00870000       2.29480000
H       -2.98040000      -0.67970000      -1.12810000
H       -1.38790000      -0.69070000      -2.03300000
H       -0.51000000      -2.53760000      -0.62940000
H       -2.06130000      -2.61310000       0.34170000
