21
Properties=species:S:1:pos:R:3 gdb_8673=T pbc="F F F"
C        0.13840000       1.55310000       0.06280000
C       -0.03020000       0.03330000      -0.00840000
C       -1.49510000      -0.49140000      -0.02350000
C       -2.26270000       0.03460000      -1.25650000
C       -1.45920000      -2.04700000      -0.00620000
C       -2.81720000      -2.74960000       0.06710000
C       -2.17520000      -0.02300000       1.19670000
N       -2.70410000       0.34130000       2.15850000
H        1.19930000       1.80910000       0.13820000
H       -0.25570000       2.05450000      -0.82590000
H       -0.36880000       1.96770000       0.93920000
H        0.45740000      -0.35500000      -0.91100000
H        0.48290000      -0.42600000       0.84410000
H       -1.76440000      -0.30890000      -2.16890000
H       -3.29290000      -0.32660000      -1.26890000
H       -2.29510000       1.12570000      -1.27060000
H       -0.92250000      -2.36410000      -0.90870000
H       -0.84570000      -2.35990000       0.84620000
H       -2.67560000      -3.83160000       0.14410000
H       -3.38560000      -2.42350000       0.94340000
H       -3.42720000      -2.56310000      -0.82150000
