17
Properties=species:S:1:pos:R:3 gdb_17931=T pbc="F F F"
C        0.06520000       1.70500000      -0.19180000
C        0.16720000       0.22610000       0.00520000
C        0.79880000      -0.82260000      -0.80280000
C        1.79570000      -1.58040000       0.09310000
C        1.04470000      -1.50410000       1.41520000
C        0.05000000      -0.59500000       1.30240000
C       -1.27380000      -1.15820000       0.78370000
N       -0.75100000      -0.77660000      -0.60740000
H        0.97020000       2.20920000       0.16440000
H       -0.06590000       1.93950000      -1.25240000
H       -0.78600000       2.12030000       0.35850000
H        1.00160000      -0.68520000      -1.86180000
H        1.93580000      -2.63650000      -0.16520000
H        2.78290000      -1.10180000       0.01240000
H        0.90880000      -2.41150000       1.99830000
H       -1.47340000      -2.21880000       0.96020000
H       -2.18190000      -0.56610000       0.93340000
