18
Properties=species:S:1:pos:R:3 gdb_51684=T pbc="F F F"
N        0.08860000       1.24130000       0.37830000
C        0.03800000       0.03810000       0.00470000
C       -1.20430000      -0.82430000      -0.05370000
C       -0.63700000      -2.25190000      -0.08100000
C       -1.53190000      -3.29870000      -0.75720000
C       -0.94290000      -4.69070000      -0.66870000
O       -0.67010000      -5.38480000      -1.61290000
C        0.70840000      -2.01680000      -0.79210000
O        1.11730000      -0.69630000      -0.41110000
H        1.04320000       1.59880000       0.30880000
H       -1.87280000      -0.61370000       0.78140000
H       -1.74840000      -0.60450000      -0.98090000
H       -0.43090000      -2.56650000       0.95010000
H       -2.50360000      -3.31800000      -0.24430000
H       -1.70430000      -3.05460000      -1.81020000
H       -0.76220000      -5.04420000       0.37430000
H        1.49690000      -2.71310000      -0.49670000
H        0.59440000      -2.06230000      -1.88360000
