19
Properties=species:S:1:pos:R:3 gdb_41751=T pbc="F F F"
C        0.00010000       1.52980000      -0.02530000
O        1.42750000       1.77930000      -0.03980000
C        1.95220000       0.44890000       0.00800000
C        1.10170000      -0.33970000      -1.01920000
C        1.41710000      -1.83360000      -1.08460000
O        1.08420000      -2.49700000       0.12140000
C        1.42580000      -1.74550000       1.27200000
C        1.10950000      -0.26050000       1.09750000
C       -0.01360000       0.00230000       0.03190000
H       -0.45510000       2.00610000       0.85140000
H       -0.46160000       1.93940000      -0.93170000
H        3.04230000       0.47470000       0.00300000
H        1.02280000       0.10310000      -2.01650000
H        0.82460000      -2.31840000      -1.86760000
H        2.48210000      -1.98310000      -1.33580000
H        0.83910000      -2.17020000       2.09330000
H        2.49260000      -1.87610000       1.52580000
H        1.03770000       0.25560000       2.05940000
H       -0.97530000      -0.50880000       0.05460000
