17
Properties=species:S:1:pos:R:3 gdb_34594=T pbc="F F F"
C        0.08780000      -1.19430000      -0.01030000
C       -0.01180000       0.00720000       0.00630000
C       -0.05140000       1.42160000       0.01930000
C       -1.17160000       2.16280000       0.05970000
C       -1.05610000       3.66920000       0.04370000
C        0.42560000       4.05980000      -0.05780000
C        1.16280000       3.26920000      -1.16270000
C        1.25240000       2.22300000      -0.02840000
O        1.16140000       3.30060000       0.94640000
H        0.15470000      -2.25380000      -0.01940000
H       -2.15390000       1.70480000       0.11190000
H       -1.62630000       4.09380000      -0.79410000
H       -1.49090000       4.09310000       0.95890000
H        0.59240000       5.13620000       0.03030000
H        0.63000000       3.00080000      -2.07650000
H        2.13350000       3.71270000      -1.38920000
H        2.14560000       1.61070000       0.09810000
