21
Properties=species:S:1:pos:R:3 gdb_81338=T pbc="F F F"
C       -0.02070000       1.44750000       0.13070000
C       -0.03260000      -0.04040000       0.03230000
C       -0.03280000      -0.86770000      -1.02960000
C       -0.02120000      -0.59930000      -2.49630000
C        0.02370000      -2.25860000      -0.39100000
C       -1.00100000      -2.09020000       0.77640000
C        0.02400000      -0.99960000       1.22480000
C        1.14820000      -1.98160000       0.69130000
O        1.57810000      -3.03190000       1.50960000
H        0.86990000       1.80670000       0.66290000
H       -0.03120000       1.91960000      -0.85600000
H       -0.88800000       1.82220000       0.68980000
H       -0.03190000       0.47280000      -2.71280000
H        0.86930000      -1.02750000      -2.97490000
H       -0.88860000      -1.05000000      -2.99620000
H        0.04560000      -3.13590000      -1.03890000
H       -2.00760000      -1.75460000       0.51520000
H       -1.06920000      -2.95430000       1.44970000
H        0.04640000      -0.58580000       2.23390000
H        2.05420000      -1.50020000       0.31610000
H        0.81170000      -3.49160000       1.86790000
