19
Properties=species:S:1:pos:R:3 gdb_108038=T pbc="F F F"
O        0.13150000       1.34020000      -0.16460000
C        0.02960000      -0.04430000       0.14410000
C       -1.38680000      -0.53470000       0.13720000
C       -2.45270000      -0.19510000       1.17490000
C       -3.23870000      -1.49560000       0.73700000
C       -4.18950000      -1.08340000      -0.36650000
C       -3.47920000      -0.75140000      -1.44950000
C       -2.03560000      -1.02910000      -1.19830000
C       -1.93150000      -1.93790000      -0.00370000
H       -0.34470000       1.48100000      -0.98990000
H        0.63660000      -0.65630000      -0.54460000
H        0.46920000      -0.15220000       1.14260000
H       -2.03700000      -0.31250000       2.17950000
H       -2.98520000       0.75830000       1.10500000
H       -3.64180000      -2.11460000       1.53670000
H       -5.25040000      -0.92540000      -0.21620000
H       -3.85630000      -0.30650000      -2.36200000
H       -1.33430000      -1.15210000      -2.01700000
H       -1.43170000      -2.89940000       0.02140000
