22
Properties=species:S:1:pos:R:3 gdb_120747=T pbc="F F F"
C       -0.33900000       1.33780000       0.02880000
O       -0.24290000      -0.05640000      -0.13060000
C        0.82140000      -0.43400000      -0.98230000
C        0.83290000      -1.93780000      -1.06110000
N        0.01930000      -2.59740000      -2.09890000
C        1.48460000      -2.73440000      -2.13490000
C        2.14580000      -2.15640000      -3.38830000
C        2.46810000      -3.27230000      -4.38890000
O        1.32350000      -1.16920000      -3.98460000
H        0.57280000       1.76300000       0.47940000
H       -0.51370000       1.84910000      -0.93110000
H       -1.18440000       1.53470000       0.69280000
H        0.71520000       0.00580000      -1.98150000
H        1.78380000      -0.08510000      -0.56610000
H        0.82050000      -2.40370000      -0.07650000
H       -0.43960000      -3.43090000      -1.74650000
H        1.90850000      -3.68570000      -1.81710000
H        3.08090000      -1.65660000      -3.10180000
H        3.18920000      -3.98570000      -3.97410000
H        1.55780000      -3.81890000      -4.65900000
H        2.89100000      -2.84110000      -5.29960000
H        0.41470000      -1.45520000      -3.79740000
