20
Properties=species:S:1:pos:R:3 gdb_89264=T pbc="F F F"
C       -0.46980000       1.45250000      -0.06440000
N        0.10570000       0.13190000       0.00680000
C        1.06090000      -0.39370000      -0.99120000
C        1.84670000      -1.07860000       0.17030000
O        2.08860000      -2.44820000       0.12470000
C        3.02700000      -0.32560000       0.81960000
C        2.86750000       1.16210000       0.76690000
C        2.06200000       0.39390000       1.77850000
C        0.86480000      -0.38140000       1.15450000
H        0.26010000       2.28050000      -0.04740000
H       -1.06250000       1.54820000      -0.98140000
H       -1.15030000       1.59580000       0.78230000
H        0.60180000      -1.09640000      -1.70250000
H        1.62210000       0.35320000      -1.57050000
H        1.26880000      -2.89170000      -0.11950000
H        3.97270000      -0.80970000       1.02900000
H        3.69810000       1.72100000       1.18750000
H        2.40250000       1.65530000      -0.07850000
H        2.17830000       0.57280000       2.84110000
H        0.27850000      -0.93870000       1.89250000
