14
Properties=species:S:1:pos:R:3 gdb_61696=T pbc="F F F"
C       -0.07020000       1.61490000      -0.02280000
C        0.01430000       0.07590000       0.01880000
O        0.68930000      -0.34570000       1.22780000
C        2.04290000      -0.23170000       1.30880000
O        2.62140000      -0.45390000       2.32550000
C       -1.32060000      -0.52090000       0.06460000
C       -2.43050000      -0.97400000       0.08880000
C        0.71870000      -0.42600000      -1.18790000
N        1.26670000      -0.78750000      -2.13820000
H        0.93200000       2.04730000      -0.07400000
H       -0.64170000       1.93690000      -0.89540000
H       -0.56940000       1.95670000       0.88560000
H        2.52270000       0.05860000       0.35900000
H       -3.40880000      -1.38920000       0.11400000
