13
Properties=species:S:1:pos:R:3 gdb_77215=T pbc="F F F"
O        0.24220000       1.28170000       0.05820000
C        0.02940000      -0.08340000      -0.07270000
C       -0.07660000      -0.76910000       1.31160000
O       -1.40220000      -1.26600000       1.01800000
C       -1.44360000      -0.59630000      -0.25950000
C       -2.46180000       0.44820000      -0.34030000
N       -3.25450000       1.28230000      -0.44080000
C        0.87750000      -1.83600000       1.60250000
N        1.64610000      -2.67120000       1.81720000
H        0.31440000       1.68650000      -0.81300000
H        0.72880000      -0.56800000      -0.76110000
H       -0.08680000      -0.03700000       2.12650000
H       -1.58800000      -1.31160000      -1.07640000
