17
Properties=species:S:1:pos:R:3 gdb_93083=T pbc="F F F"
O       -0.11270000       1.42880000       0.03280000
C        0.01050000       0.01310000      -0.03010000
C        0.92030000      -0.47200000       1.10610000
N        1.22330000      -1.88020000       1.22610000
C        0.54250000      -2.83280000       0.75140000
N       -0.64570000      -2.89650000       0.01340000
C       -1.60550000      -1.95900000      -0.35880000
O       -2.56610000      -2.32900000      -0.99950000
C       -1.41570000      -0.52420000       0.07630000
H        0.76900000       1.81040000      -0.03430000
H        0.44020000      -0.29110000      -0.99870000
H        1.88390000       0.04990000       1.01710000
H        0.48720000      -0.12490000       2.05520000
H        0.91780000      -3.84410000       0.92440000
H       -0.90830000      -3.82450000      -0.29300000
H       -1.76560000      -0.42430000       1.11210000
H       -2.07870000       0.07680000      -0.54760000
