19
Properties=species:S:1:pos:R:3 gdb_114631=T pbc="F F F"
C       -0.47390000       1.27160000      -0.05110000
O        0.18430000       0.02350000       0.11920000
C        0.76690000      -0.45580000      -1.02610000
C       -0.01870000      -1.06480000      -2.17530000
C        1.01460000      -1.87730000      -1.44290000
O        2.33140000      -1.58370000      -1.92510000
C        2.22580000      -0.20650000      -1.43730000
C        2.61290000       0.78860000      -2.51470000
O        3.92030000       0.52250000      -2.98800000
H        0.23030000       2.06650000      -0.33340000
H       -1.25780000       1.20810000      -0.81740000
H       -0.92620000       1.52380000       0.91000000
H       -1.04250000      -1.30290000      -1.90140000
H        0.13600000      -0.78660000      -3.21340000
H        0.84700000      -2.83110000      -0.95830000
H        2.86720000      -0.09170000      -0.55520000
H        1.87670000       0.76750000      -3.33220000
H        2.62320000       1.80300000      -2.09960000
H        3.92900000      -0.40930000      -3.23840000
