16
Properties=species:S:1:pos:R:3 gdb_16709=T pbc="F F F"
C       -0.04860000       1.50850000      -0.02160000
C        0.05510000      -0.00370000       0.07730000
O        0.90870000      -0.53150000      -0.99090000
C        1.91850000      -1.25370000      -0.27430000
C        1.10900000      -2.01310000       0.81500000
C        0.78860000      -0.55990000       1.31420000
C        2.25130000      -0.28060000       0.88260000
O        3.20250000       0.27940000       1.33330000
H        0.92850000       1.98310000       0.10790000
H       -0.44090000       1.79210000      -1.00220000
H       -0.72830000       1.89680000       0.74440000
H       -0.93920000      -0.45640000      -0.02930000
H        2.63630000      -1.70420000      -0.95430000
H        0.26370000      -2.59580000       0.44400000
H        1.72400000      -2.58950000       1.50840000
H        0.39670000      -0.32660000       2.30100000
