22
Properties=species:S:1:pos:R:3 gdb_89527=T pbc="F F F"
C       -0.05640000       1.51010000       0.05340000
N        0.03440000       0.07010000       0.10590000
C       -1.18410000      -0.70740000       0.40690000
C       -0.36160000      -1.60740000       1.37410000
C       -0.95770000      -1.92050000       2.73000000
O        0.12290000      -2.81440000       0.80100000
C        1.31100000      -2.55130000       0.05310000
C        1.99390000      -1.36960000       0.75890000
C        0.78390000      -0.56030000       1.21640000
H        0.93970000       1.94300000      -0.08900000
H       -0.67490000       1.81350000      -0.79820000
H       -0.49540000       1.95790000       0.96660000
H       -1.95960000      -0.12790000       0.93290000
H       -1.63570000      -1.20710000      -0.45740000
H       -1.78560000      -2.62960000       2.62520000
H       -0.20540000      -2.37640000       3.38100000
H       -1.33900000      -1.01640000       3.21260000
H        1.90620000      -3.46850000       0.04440000
H        1.06390000      -2.28140000      -0.98240000
H        2.57050000      -1.71170000       1.62550000
H        2.65520000      -0.80630000       0.09550000
H        0.96600000       0.09580000       2.07740000
