21
Properties=species:S:1:pos:R:3 gdb_114846=T pbc="F F F"
O       -0.10520000       1.48620000       0.02830000
C        0.02250000       0.07070000       0.10810000
C       -1.37100000      -0.52620000      -0.00760000
C       -2.08340000      -0.24840000      -1.37570000
C       -2.42890000      -1.67000000      -1.88200000
C       -1.11000000      -2.37890000      -2.22510000
O       -0.47880000      -2.58170000      -0.94360000
C       -1.39620000      -2.07010000       0.03920000
C       -2.76870000      -2.39760000      -0.56210000
H        0.77860000       1.86470000       0.01780000
H        0.65980000      -0.32310000      -0.69570000
H        0.47810000      -0.23130000       1.06550000
H       -1.97200000      -0.13040000       0.81940000
H       -2.98620000       0.35270000      -1.23940000
H       -1.43530000       0.29550000      -2.06870000
H       -3.17300000      -1.71050000      -2.67870000
H       -1.26760000      -3.35200000      -2.70950000
H       -0.45640000      -1.77450000      -2.86630000
H       -1.14010000      -2.51690000       1.00140000
H       -3.60370000      -1.94780000      -0.01870000
H       -2.93490000      -3.47210000      -0.67480000
