15
Properties=species:S:1:pos:R:3 gdb_2472=T pbc="F F F"
O       -0.54000000       1.24800000       0.72900000
C       -0.02860000       0.10400000       0.06150000
C        0.86030000      -0.78750000       0.97620000
C       -0.06920000      -1.85850000       1.51020000
O       -1.27980000      -1.34070000       2.07070000
C       -1.31490000      -1.84990000       0.73260000
C       -1.23850000      -0.77610000      -0.33360000
H        0.20560000       1.76100000       1.05600000
H        0.53390000       0.41450000      -0.83080000
H        1.66520000      -1.25960000       0.39930000
H        1.32730000      -0.19720000       1.77220000
H        0.32660000      -2.75090000       1.99010000
H       -1.92720000      -2.73680000       0.58570000
H       -2.14130000      -0.16260000      -0.39150000
H       -1.08160000      -1.24550000      -1.31160000
