14
Properties=species:S:1:pos:R:3 gdb_47130=T pbc="F F F"
O        0.04660000      -0.02740000      -0.22970000
C       -0.03990000       1.12590000       0.06130000
C       -1.28640000       1.97570000       0.05140000
C       -1.27020000       2.96790000       1.22030000
N       -0.01910000       3.70670000       1.29320000
C        1.02430000       3.11280000       0.89470000
O        1.10980000       1.80690000       0.42470000
C        2.31360000       3.72710000       0.91890000
C        3.40290000       4.23350000       0.93340000
H       -1.29690000       2.53070000      -0.89560000
H       -2.15550000       1.31630000       0.06240000
H       -2.09210000       3.68270000       1.12700000
H       -1.41940000       2.44370000       2.17500000
H        4.36330000       4.68810000       0.95010000
