17
Properties=species:S:1:pos:R:3 gdb_54525=T pbc="F F F"
C        0.58630000       0.38100000      -1.00430000
C       -0.17760000       0.32320000       0.29990000
O        0.20040000       0.86540000       1.31530000
C       -1.47590000      -0.42960000       0.29980000
C       -2.51380000      -0.20550000       1.38350000
O       -3.40440000      -1.31380000       1.29620000
C       -2.72270000      -2.42720000       0.74160000
C       -1.61710000      -1.84220000      -0.11290000
O       -2.05140000      -0.79220000      -0.96740000
H        1.53720000       0.88860000      -0.84100000
H        0.75800000      -0.62100000      -1.40970000
H       -0.00400000       0.91900000      -1.75330000
H       -2.00460000      -0.15060000       2.35510000
H       -3.10140000       0.70560000       1.23910000
H       -2.27470000      -3.07170000       1.51630000
H       -3.44710000      -3.01780000       0.17140000
H       -0.79120000      -2.45380000      -0.46690000
