15
Properties=species:S:1:pos:R:3 gdb_8759=T pbc="F F F"
C        0.10750000       1.44460000      -0.02800000
N        0.03350000      -0.01660000      -0.00310000
C        0.12160000      -0.66630000       1.22610000
N        0.26300000      -0.01960000       2.31270000
C       -0.06790000      -0.77800000      -1.16320000
N        0.06560000      -2.04730000      -1.16280000
C       -0.39650000      -0.04510000      -2.45770000
O       -0.42930000      -0.63460000      -3.50700000
H        0.41650000       1.76030000       0.96760000
H        0.84480000       1.78900000      -0.75770000
H       -0.86340000       1.90060000      -0.24890000
H        0.05080000      -1.74750000       1.11460000
H        0.29500000      -0.66420000       3.09940000
H       -0.07570000      -2.38120000      -2.11850000
H       -0.62750000       1.03370000      -2.40170000
