21
Properties=species:S:1:pos:R:3 gdb_107438=T pbc="F F F"
O        0.01290000       1.37080000       0.42280000
C       -0.04200000       0.07860000      -0.17290000
C       -1.44970000      -0.44130000      -0.07100000
C       -1.94120000      -1.41000000      -1.12200000
C       -2.54270000      -0.02870000      -1.04130000
C       -3.83810000       0.19500000      -0.25530000
C       -3.52160000      -0.09540000       1.21690000
C       -3.14370000      -1.49110000       1.64840000
C       -2.06310000      -0.48940000       1.32140000
H        0.93670000       1.63030000       0.48620000
H        0.25770000       0.11780000      -1.23240000
H        0.64870000      -0.61380000       0.33610000
H       -1.27810000      -1.60560000      -1.95990000
H       -2.52540000      -2.27420000      -0.82910000
H       -2.32400000       0.65510000      -1.85520000
H       -4.13870000       1.24320000      -0.35550000
H       -4.67080000      -0.40910000      -0.63590000
H       -3.97830000       0.54930000       1.96020000
H       -3.28700000      -1.73350000       2.69690000
H       -3.32840000      -2.33000000       0.98710000
H       -1.43990000      -0.11410000       2.12390000
