21
Properties=species:S:1:pos:R:3 gdb_70432=T pbc="F F F"
O       -0.14020000       1.40080000       0.05280000
C        0.05080000       0.03090000       0.04260000
C       -0.83300000      -0.83200000       0.87810000
C        0.66700000      -0.92720000       1.07210000
C        1.26370000      -1.76160000      -0.06630000
C        0.67340000      -0.75200000      -1.11170000
C       -0.10010000      -1.24330000      -2.36510000
C        1.15760000      -0.93770000      -3.22200000
C        1.69060000      -0.05760000      -2.05950000
H        0.71200000       1.82300000      -0.10360000
H       -1.35570000      -0.28670000       1.65750000
H       -1.39400000      -1.66050000       0.44940000
H        1.12920000      -0.72850000       2.03120000
H        2.35690000      -1.77980000      -0.07400000
H        0.89390000      -2.79090000      -0.13850000
H       -0.46950000      -2.27210000      -2.35550000
H       -0.93370000      -0.57530000      -2.60470000
H        1.77480000      -1.82740000      -3.37380000
H        1.00630000      -0.45270000      -4.18890000
H        1.43430000       0.99710000      -2.21160000
H        2.75210000      -0.12670000      -1.80400000
