18
Properties=species:S:1:pos:R:3 gdb_127140=T pbc="F F F"
C        0.02780000       1.42140000       0.10010000
N       -0.00090000       0.00780000      -0.22180000
C        1.20740000      -0.74140000       0.08510000
C       -1.19690000      -0.66550000      -0.10910000
N       -1.21400000      -1.97530000       0.07780000
O       -2.59350000      -2.32120000       0.06490000
C       -3.31560000      -1.21160000      -0.10220000
N       -4.67710000      -1.38940000      -0.19110000
C       -2.51270000      -0.11410000      -0.21260000
H        0.96230000       1.85060000      -0.27250000
H       -0.79510000       1.94270000      -0.39380000
H       -0.03340000       1.62320000       1.18230000
H        1.34380000      -0.90360000       1.16560000
H        1.15820000      -1.71890000      -0.39650000
H        2.07200000      -0.19240000      -0.29870000
H       -5.00480000      -2.23630000       0.25220000
H       -5.22420000      -0.58170000       0.06580000
H       -2.81450000       0.90690000      -0.36380000
