14
Properties=species:S:1:pos:R:3 gdb_27491=T pbc="F F F"
C        0.03430000       1.48830000       0.06340000
C       -0.08990000       0.00910000      -0.09030000
N        0.03260000      -0.58490000      -1.21010000
C       -0.10170000      -1.98440000      -1.25250000
O       -0.00200000      -2.63030000      -2.26250000
N       -0.36390000      -2.59500000      -0.02520000
C       -0.49670000      -1.96150000       1.18700000
N       -0.73290000      -2.57080000       2.26320000
O       -0.34620000      -0.58700000       1.11340000
H        0.84120000       1.72430000       0.76430000
H        0.23750000       1.93880000      -0.90640000
H       -0.88960000       1.89890000       0.48280000
H       -0.46580000      -3.60000000      -0.02070000
H       -0.79500000      -1.92550000       3.04650000
