17
Properties=species:S:1:pos:R:3 gdb_51068=T pbc="F F F"
O       -0.21760000      -0.04900000       0.11730000
C       -0.01260000       1.13520000       0.07100000
C        1.34980000       1.76390000      -0.17260000
C        1.31080000       2.79540000      -1.25660000
C        2.23920000       3.94400000      -1.66030000
C        2.30050000       3.45510000      -3.10660000
C        0.93830000       2.78460000      -2.79960000
O        0.03360000       3.90920000      -2.60980000
C        0.73770000       4.16770000      -1.39870000
H       -0.83630000       1.87240000       0.20740000
H        1.65800000       2.25120000       0.76460000
H        2.06880000       0.96480000      -0.38150000
H        3.01020000       4.41500000      -1.06330000
H        2.30540000       4.18830000      -3.91870000
H        3.09430000       2.71700000      -3.24620000
H        0.51300000       1.97980000      -3.39550000
H        0.32770000       4.87190000      -0.68640000
