16
Properties=species:S:1:pos:R:3 gdb_47322=T pbc="F F F"
O        0.02130000       0.88470000      -1.53140000
C       -0.07680000       1.38110000      -0.43820000
C       -1.43220000       1.62860000       0.22490000
N       -1.27090000       2.14690000       1.57150000
C       -0.97380000       3.56550000       1.63870000
C        0.41540000       4.02420000       1.18040000
O        0.73560000       5.17050000       1.33450000
O        1.28340000       3.19430000       0.55470000
C        1.14870000       1.77250000       0.39300000
H       -2.02820000       2.27460000      -0.44470000
H       -1.94290000       0.66080000       0.26250000
H       -2.08590000       1.94270000       2.13480000
H       -1.67520000       4.19130000       1.05680000
H       -1.05450000       3.89780000       2.67690000
H        1.11630000       1.27820000       1.36770000
H        2.04090000       1.47180000      -0.15620000
