19
Properties=species:S:1:pos:R:3 gdb_15071=T pbc="F F F"
C        0.28010000       1.49060000       0.02830000
C        0.11110000      -0.02580000      -0.09830000
C        0.61530000      -0.61440000      -1.43200000
C        0.43520000      -2.12620000      -1.37450000
O        1.22320000      -2.88070000      -0.86660000
N       -0.15090000      -0.10670000      -2.56650000
C        0.38720000       1.05360000      -3.27100000
C        0.45590000      -0.29700000      -3.88670000
H        1.32750000       1.78690000      -0.09710000
H       -0.31600000       2.02550000      -0.71550000
H       -0.04340000       1.82710000       1.01800000
H        0.65860000      -0.52990000       0.70600000
H       -0.94700000      -0.28970000       0.01830000
H        1.69790000      -0.41510000      -1.52560000
H       -0.51890000      -2.48370000      -1.82350000
H       -0.34600000       1.77860000      -3.61250000
H        1.31940000       1.48360000      -2.91030000
H        1.43470000      -0.77150000      -3.93450000
H       -0.22750000      -0.57780000      -4.68220000
