19
Properties=species:S:1:pos:R:3 gdb_31246=T pbc="F F F"
C        0.12210000       1.54280000       0.43090000
C        0.00250000       0.10700000      -0.11290000
C       -1.38890000      -0.43010000      -0.12770000
C       -2.25200000      -0.73320000      -1.15720000
O       -1.95600000      -0.59120000      -2.46850000
C       -2.97170000      -0.99100000      -3.37890000
N       -3.45330000      -1.19730000      -0.70260000
C       -3.34630000      -1.18390000       0.61170000
N       -2.13050000      -0.73130000       1.00810000
H        1.16200000       1.88380000       0.40710000
H       -0.48090000       2.23460000      -0.16430000
H       -0.22490000       1.60950000       1.46810000
H        0.36910000       0.07530000      -1.14340000
H        0.66310000      -0.55390000       0.46650000
H       -3.21880000      -2.05160000      -3.26120000
H       -3.88750000      -0.40750000      -3.23630000
H       -2.56610000      -0.81120000      -4.37630000
H       -4.11030000      -1.49010000       1.30970000
H       -1.81140000      -0.63840000       1.95770000
