23
Properties=species:S:1:pos:R:3 gdb_105520=T pbc="F F F"
C       -0.13140000       1.44400000       0.33770000
C       -0.06320000      -0.04290000      -0.02620000
C        0.74090000      -0.42020000      -1.28120000
C        0.35890000       0.28340000      -2.60800000
O        1.72520000       0.67090000      -2.84810000
C        2.11610000       0.25380000      -1.52100000
C        0.82370000      -1.95760000      -1.38090000
C        1.41980000      -2.52400000      -2.67250000
O        1.60650000      -2.36120000      -0.25460000
H        0.85240000       1.85030000       0.59080000
H       -0.54450000       2.05530000      -0.47080000
H       -0.77440000       1.58390000       1.21230000
H        0.35050000      -0.60280000       0.81820000
H       -1.08610000      -0.42070000      -0.16640000
H       -0.04750000      -0.33610000      -3.41520000
H       -0.29440000       1.15660000      -2.48130000
H        2.33080000       1.11330000      -0.87530000
H        2.98710000      -0.40850000      -1.52730000
H       -0.20330000      -2.34950000      -1.27730000
H        1.51150000      -3.61300000      -2.58210000
H        0.78020000      -2.32940000      -3.53710000
H        2.41220000      -2.11590000      -2.87710000
H        1.71380000      -3.31640000      -0.29260000
