18
Properties=species:S:1:pos:R:3 gdb_96893=T pbc="F F F"
C       -0.12350000       1.32080000      -0.01490000
N       -0.06160000      -0.12460000       0.14260000
C       -1.09780000      -0.80500000       0.00460000
O       -2.42110000      -0.38850000      -0.28130000
C       -2.90160000      -1.74650000      -0.03430000
C       -4.13890000      -1.88880000       0.78460000
C       -2.33300000      -2.60480000      -1.10140000
O       -2.10810000      -2.17220000      -2.39610000
C       -1.45360000      -2.24050000       0.11630000
H        0.49750000       1.61400000      -0.86870000
H       -1.13630000       1.71270000      -0.16510000
H        0.31090000       1.79420000       0.87190000
H       -4.99620000      -1.44480000       0.26720000
H       -4.35720000      -2.94670000       0.95540000
H       -4.02660000      -1.39310000       1.75360000
H       -2.64640000      -3.64530000      -1.08420000
H       -2.17260000      -1.20800000      -2.38620000
H       -0.99620000      -2.97330000       0.76560000
