19
Properties=species:S:1:pos:R:3 gdb_61972=T pbc="F F F"
C       -0.07810000       1.53360000       0.01920000
C        0.07280000       0.02430000      -0.06020000
O        1.15380000      -0.50390000      -0.18860000
C       -1.21700000      -0.78120000       0.02390000
C       -0.99500000      -2.28900000       0.11450000
C       -2.30960000      -3.07560000      -0.04580000
O       -2.96090000      -2.77280000      -1.28030000
C       -2.08560000      -4.51600000       0.10370000
C       -1.87230000      -5.69620000       0.18730000
H        0.88170000       2.01400000      -0.17430000
H       -0.82730000       1.88940000      -0.69620000
H       -0.43160000       1.82000000       1.01680000
H       -1.80830000      -0.41090000       0.87280000
H       -1.81820000      -0.54880000      -0.86530000
H       -0.28940000      -2.60480000      -0.66070000
H       -0.53290000      -2.55400000       1.07110000
H       -3.01870000      -2.74570000       0.72450000
H       -2.47490000      -3.22580000      -1.97880000
H       -1.69780000      -6.74040000       0.27320000
