17
Properties=species:S:1:pos:R:3 gdb_14204=T pbc="F F F"
C       -0.10540000       1.50960000      -0.02740000
C       -0.05640000       0.02370000      -0.02340000
C       -0.01520000      -1.06510000      -1.07170000
C        1.25680000      -1.59610000      -0.44860000
N        0.89270000      -0.86370000       0.83320000
C       -0.33570000      -1.63130000       1.29100000
C       -1.06220000      -1.07590000       0.08010000
O       -2.41550000      -0.95550000      -0.15560000
H        0.83170000       1.94300000      -0.39300000
H       -0.91770000       1.85270000      -0.67620000
H       -0.28880000       1.90000000       0.97950000
H       -0.33950000      -1.00890000      -2.10470000
H        1.39430000      -2.67710000      -0.32730000
H        2.16670000      -1.16020000      -0.87100000
H       -0.18350000      -2.71120000       1.40440000
H       -0.70250000      -1.20770000       2.22980000
H       -2.72670000      -1.75970000      -0.58590000
