17
Properties=species:S:1:pos:R:3 gdb_93455=T pbc="F F F"
C       -0.16100000       1.50750000      -0.03880000
C        0.04810000       0.00190000      -0.00670000
O        0.75980000      -0.38110000      -1.17110000
C        1.00670000      -1.76880000      -1.22460000
C        1.85520000      -2.23930000      -0.06070000
N        2.63980000      -3.22850000      -0.19560000
N        1.64640000      -1.50470000       1.10730000
C        0.78300000      -0.43190000       1.26780000
O        0.62700000       0.09540000       2.34610000
H        0.80200000       2.01960000      -0.11210000
H       -0.76900000       1.77850000      -0.90460000
H       -0.65950000       1.82990000       0.87620000
H       -0.93210000      -0.51010000       0.01410000
H        0.06050000      -2.33700000      -1.22640000
H        1.53690000      -1.98220000      -2.15250000
H        3.11540000      -3.46620000       0.67770000
H        2.15170000      -1.76880000       1.94480000
