23
Properties=species:S:1:pos:R:3 gdb_118771=T pbc="F F F"
C        0.15940000       1.37100000      -0.35200000
C        0.03040000      -0.07060000       0.10490000
C       -1.06710000      -0.81660000      -0.63210000
O        1.26680000      -0.79450000       0.24020000
C        0.51310000      -0.51340000       1.44040000
C        1.17680000       0.45990000       2.40090000
C       -0.07670000      -1.73250000       2.14320000
C        0.96420000      -2.82460000       2.38130000
O        0.32100000      -3.87670000       3.08720000
H        0.95350000       1.90980000       0.16340000
H        0.37600000       1.39920000      -1.42560000
H       -0.78250000       1.90730000      -0.19140000
H       -0.95870000      -0.66020000      -1.71090000
H       -1.02500000      -1.89010000      -0.44890000
H       -2.05690000      -0.44680000      -0.34220000
H        0.42330000       1.01290000       2.97260000
H        1.80040000      -0.08230000       3.11950000
H        1.81780000       1.17170000       1.88140000
H       -0.48680000      -1.42220000       3.11110000
H       -0.90230000      -2.17360000       1.58170000
H        1.35490000      -3.16360000       1.41200000
H        1.81560000      -2.42580000       2.95570000
H        0.94970000      -4.59750000       3.18560000
