17
Properties=species:S:1:pos:R:3 gdb_33716=T pbc="F F F"
C        0.02030000      -1.13930000      -0.00950000
C        0.00220000       0.06360000      -0.00010000
C       -0.02020000       1.49640000       0.01170000
C       -0.64390000       2.42760000       1.10320000
C       -0.04980000       3.39580000       0.02740000
C        1.20780000       2.46560000       0.00500000
C       -0.66940000       2.44500000      -1.04970000
C       -0.07210000       4.82850000       0.03920000
C       -0.09070000       6.03140000       0.04920000
H        0.03680000      -2.20090000      -0.01820000
H       -1.73240000       2.40990000       1.19190000
H       -0.15380000       2.42720000       2.07940000
H        1.82900000       2.46780000       0.90340000
H        1.80800000       2.48250000      -0.90750000
H       -0.20220000       2.46040000      -2.03690000
H       -1.75970000       2.42850000      -1.11310000
H       -0.10660000       7.09300000       0.05830000
