17
Properties=species:S:1:pos:R:3 gdb_72597=T pbc="F F F"
C       -0.36060000       1.45250000       0.00370000
C        0.04570000       0.00890000      -0.01090000
C        1.17130000      -0.53960000      -0.89900000
O        1.68150000      -1.35600000       0.18490000
C        0.69770000      -0.83890000       1.11650000
C        1.25290000      -0.43550000       2.44880000
C       -0.59660000      -1.67180000       1.00790000
O       -1.09200000      -2.62280000       1.51730000
O       -1.10290000      -0.90640000      -0.02460000
H        0.51600000       2.09710000       0.11560000
H       -0.86280000       1.71840000      -0.93240000
H       -1.05190000       1.65290000       0.82690000
H        0.84260000      -1.12910000      -1.76030000
H        1.91300000       0.20510000      -1.21010000
H        2.07410000       0.27580000       2.32610000
H        0.47700000       0.01410000       3.07560000
H        1.63570000      -1.32050000       2.96680000
