21
Properties=species:S:1:pos:R:3 gdb_106664=T pbc="F F F"
C        0.04670000       1.52750000       0.00200000
C       -0.00840000       0.02900000       0.09680000
C        1.16000000      -0.86820000      -0.21700000
C        0.52260000      -0.96030000       1.15160000
C        1.29880000      -0.73070000       2.41350000
O        2.01070000      -1.88700000       2.84020000
C       -0.75150000      -1.80790000       1.02740000
C       -1.30260000      -0.80350000      -0.03690000
O       -2.49210000      -0.13650000       0.32180000
H        0.98620000       1.92020000       0.40350000
H       -0.03150000       1.85580000      -1.04120000
H       -0.77860000       1.99260000       0.55060000
H        1.05900000      -1.68660000      -0.92810000
H        2.12290000      -0.36480000      -0.25700000
H        1.97610000       0.12950000       2.28080000
H        0.62540000      -0.48690000       3.24360000
H        2.54860000      -2.17850000       2.09620000
H       -0.62200000      -2.85170000       0.72390000
H       -1.37330000      -1.78560000       1.92830000
H       -1.49200000      -1.20960000      -1.03620000
H       -2.40270000       0.16940000       1.23130000
