21
Properties=species:S:1:pos:R:3 gdb_91652=T pbc="F F F"
C       -0.25650000       1.53730000      -0.00390000
C        0.04940000       0.04080000       0.01440000
C        0.89970000      -0.52900000      -1.17440000
C        1.93850000      -1.29800000      -0.33820000
O        1.12910000      -1.88720000       0.72750000
C        0.94630000      -0.49850000       1.15440000
C        2.41620000      -0.24890000       0.71470000
C        3.46230000      -0.76550000       1.69090000
O        2.71860000       1.05700000       0.27750000
H        0.65400000       2.13380000      -0.07160000
H       -0.89660000       1.78490000      -0.85770000
H       -0.79530000       1.83530000       0.90300000
H       -0.89270000      -0.51310000       0.07920000
H        0.33060000      -1.19280000      -1.82830000
H        1.36220000       0.25900000      -1.77400000
H        2.61110000      -2.00450000      -0.82760000
H        0.61170000      -0.38900000       2.18750000
H        3.20710000      -1.76620000       2.04080000
H        4.44700000      -0.81330000       1.20730000
H        3.54160000      -0.09460000       2.55270000
H        3.67520000       1.14530000       0.22400000
