18
Properties=species:S:1:pos:R:3 gdb_102445=T pbc="F F F"
C        0.58430000      -2.43950000      -0.10290000
N        0.44400000      -0.99540000      -0.24520000
C        0.54970000      -0.52230000      -1.60980000
C       -0.02030000       0.90020000      -1.70320000
O       -1.37550000       0.83570000      -1.28160000
C        1.99940000      -0.47200000      -2.10750000
O        2.27100000      -0.58560000      -3.28330000
C        3.03260000      -0.22720000      -1.11470000
C        3.93370000      -0.01500000      -0.34490000
H       -0.10700000      -3.01950000      -0.73900000
H        1.60550000      -2.74350000      -0.35730000
H        0.40960000      -2.71910000       0.93970000
H       -0.45490000      -0.69290000       0.11370000
H        0.00620000      -1.14730000      -2.34050000
H        0.56660000       1.56610000      -1.05410000
H        0.06550000       1.25060000      -2.74050000
H       -1.69390000       1.73280000      -1.14630000
H        4.72340000       0.17180000       0.34150000
