19
Properties=species:S:1:pos:R:3 gdb_119255=T pbc="F F F"
O       -1.90480000       1.36740000      -1.36740000
C       -1.86260000      -0.05050000      -1.39790000
C       -1.63960000      -0.52490000       0.03630000
C       -1.59040000      -2.03050000       0.16090000
C       -1.98130000      -2.73080000       1.43660000
C       -2.84930000      -2.84270000       0.20120000
O       -0.55120000      -2.62880000      -0.61400000
C        0.68660000      -2.64550000      -0.07310000
O        1.63590000      -3.06980000      -0.66040000
H       -1.96520000       1.68580000      -2.27260000
H       -2.80350000      -0.47390000      -1.78410000
H       -1.05000000      -0.41880000      -2.04000000
H       -0.70970000      -0.08130000       0.41280000
H       -2.44870000      -0.13950000       0.66590000
H       -1.41490000      -3.60950000       1.72320000
H       -2.32540000      -2.12430000       2.26700000
H       -3.79520000      -2.31350000       0.17940000
H       -2.83970000      -3.78670000      -0.33050000
H        0.71190000      -2.24070000       0.95520000
