14
Properties=species:S:1:pos:R:3 gdb_123630=T pbc="F F F"
C       -0.02310000       1.56690000      -0.10370000
C        1.50330000       1.39380000       0.15380000
N        1.12110000       0.16420000       0.92300000
C        0.08540000       0.01320000      -0.14740000
C        0.93500000      -0.18630000      -1.40720000
C        1.99340000       0.83290000      -1.21780000
O        2.94400000       1.14660000      -1.88510000
N        0.64370000      -1.69820000      -3.27890000
N        0.76740000      -0.99290000      -2.39300000
H       -0.54100000       1.92260000       0.78770000
H       -0.34880000       2.08500000      -1.00580000
H        2.13610000       2.14260000       0.62570000
H        1.83180000      -0.56880000       0.90660000
H       -0.75190000      -0.66220000       0.01970000
