14
Properties=species:S:1:pos:R:3 gdb_31211=T pbc="F F F"
C        0.03870000       1.47190000      -0.08580000
O        0.01340000       0.04260000      -0.02330000
C        0.58060000      -0.62540000      -1.01570000
C        0.71440000      -1.97130000      -1.23510000
N        1.40300000      -2.13130000      -2.44800000
C        1.63140000      -0.94030000      -2.86550000
O        1.15610000       0.05090000      -2.03930000
C        0.26580000      -3.03800000      -0.43060000
C       -0.12080000      -3.94320000       0.26280000
H        1.06730000       1.84480000      -0.09490000
H       -0.48600000       1.83380000      -0.97520000
H       -0.47370000       1.81110000       0.81390000
H        2.13580000      -0.61240000      -3.75950000
H       -0.46070000      -4.74280000       0.87230000
