15
Properties=species:S:1:pos:R:3 gdb_29336=T pbc="F F F"
C        0.08300000       1.48360000       0.02670000
C       -0.03060000       0.00450000       0.05350000
C       -1.11160000      -0.84060000      -0.02510000
C       -2.46900000      -0.47830000      -0.16840000
N       -3.59130000      -0.21570000      -0.29550000
C       -0.59620000      -2.19200000       0.05200000
N       -1.38130000      -3.33770000       0.08180000
C        0.75200000      -2.05330000       0.16800000
O        1.09370000      -0.71690000       0.17120000
H        0.70280000       1.81650000      -0.81300000
H       -0.90800000       1.93000000      -0.07330000
H        0.54440000       1.85960000       0.94630000
H       -2.26720000      -3.23550000      -0.39480000
H       -0.90700000      -4.17860000      -0.21490000
H        1.56750000      -2.74840000       0.26230000
