15
Properties=species:S:1:pos:R:3 gdb_48400=T pbc="F F F"
O       -0.13050000       0.09100000      -0.38820000
C        0.03070000       1.17380000       0.10230000
C        1.33040000       1.97550000       0.00380000
O        2.45700000       1.21180000      -0.49190000
C        2.60450000       2.10390000      -1.60470000
C        1.40710000       2.05320000      -2.49160000
C        1.38220000       2.90770000      -1.23730000
C        1.61700000       2.64030000       1.26430000
C        1.80340000       3.18410000       2.31960000
H       -0.77810000       1.71610000       0.63930000
H        3.60940000       2.39190000      -1.88670000
H        1.47720000       2.63170000      -3.40770000
H        0.82750000       1.13800000      -2.55470000
H        1.20050000       3.97210000      -1.21430000
H        1.98840000       3.66250000       3.25010000
