25
Properties=species:S:1:pos:R:3 gdb_117887=T pbc="F F F"
C       -0.34790000       1.50660000       0.25350000
C       -0.04600000       0.02130000       0.03180000
C        0.77860000      -0.58630000       1.17210000
C        1.02990000      -2.10940000       1.04600000
C        1.89070000      -2.47400000      -0.18130000
C        1.63730000      -2.62990000       2.27250000
C        2.16050000      -3.03540000       3.27990000
C        2.76420000      -3.55550000       4.50320000
C        1.99650000      -4.75230000       5.09410000
H        0.57620000       2.09000000       0.33240000
H       -0.93450000       1.92240000      -0.57170000
H       -0.91490000       1.66190000       1.17800000
H       -0.98920000      -0.53300000      -0.06830000
H        0.48110000      -0.09950000      -0.92190000
H        1.74760000      -0.07540000       1.24550000
H        0.26500000      -0.40280000       2.12340000
H        0.04980000      -2.59420000       0.92250000
H        2.86710000      -1.98220000      -0.12430000
H        2.06000000      -3.55310000      -0.22540000
H        1.40350000      -2.16780000      -1.11110000
H        3.80200000      -3.85190000       4.30200000
H        2.82230000      -2.75460000       5.25190000
H        1.95830000      -5.57950000       4.38000000
H        2.48350000      -5.10700000       6.00760000
H        0.96830000      -4.47130000       5.33810000
