17
Properties=species:S:1:pos:R:3 gdb_87293=T pbc="F F F"
O        0.34440000       0.83100000       0.38730000
C       -0.19970000      -0.42560000       0.35510000
C       -1.20280000      -0.90040000       1.32550000
C       -1.70000000      -0.65410000      -0.10570000
C       -2.43340000       0.59910000      -0.33160000
O       -2.24920000       1.62570000       0.30010000
C       -2.05680000      -1.80550000      -0.98790000
C       -1.50740000      -3.16000000      -0.85180000
O       -2.83780000      -2.87280000      -0.42660000
H       -0.36650000       1.45100000       0.62880000
H        0.49510000      -1.14250000      -0.07000000
H       -1.19800000      -1.93490000       1.65040000
H       -1.56240000      -0.18640000       2.05950000
H       -3.16600000       0.58220000      -1.16510000
H       -2.38860000      -1.51110000      -1.98540000
H       -1.41740000      -3.79140000      -1.73470000
H       -0.79980000      -3.38870000      -0.05580000
