21
Properties=species:S:1:pos:R:3 gdb_71114=T pbc="F F F"
C       -0.05020000       1.50890000       0.01130000
C       -0.01290000      -0.01470000      -0.00170000
C        0.78470000      -0.62130000      -1.20080000
C        1.03770000      -2.04860000      -0.75520000
C        1.01320000      -2.06210000       0.74920000
C        0.74540000      -0.64280000       1.21170000
C       -0.14520000      -2.69740000      -0.02780000
C       -1.43560000      -1.97640000      -0.04240000
C       -1.39060000      -0.64090000      -0.02970000
H        0.96020000       1.93100000       0.03150000
H       -0.55930000       1.89800000      -0.87760000
H       -0.58800000       1.88220000       0.89000000
H        0.22770000      -0.54320000      -2.14030000
H        1.73880000      -0.09350000      -1.32300000
H        1.69730000      -2.68920000      -1.32880000
H        1.65390000      -2.71300000       1.33250000
H        1.69480000      -0.11750000       1.37430000
H        0.15810000      -0.58130000       2.13380000
H       -0.17230000      -3.78090000      -0.03790000
H       -2.36490000      -2.53640000      -0.06250000
H       -2.27700000      -0.01460000      -0.03860000
