15
Properties=species:S:1:pos:R:3 gdb_132500=T pbc="F F F"
C        0.02530000       1.51140000       0.04630000
C        0.03160000       0.00580000       0.00690000
C       -0.01980000      -0.70100000      -1.19040000
C       -0.01000000      -2.09040000      -1.13990000
F       -0.05920000      -2.76810000      -2.28840000
N        0.04470000      -2.80320000      -0.04060000
C        0.09440000      -2.13450000       1.11460000
C        0.09050000      -0.74490000       1.19270000
O        0.14480000      -0.18100000       2.43330000
H        0.93210000       1.90700000       0.52200000
H       -0.02520000       1.93050000      -0.96040000
H       -0.83610000       1.89740000       0.60670000
H       -0.06670000      -0.19070000      -2.14530000
H        0.13980000      -2.71730000       2.03000000
H        0.13660000       0.77770000       2.35540000
