20
Properties=species:S:1:pos:R:3 gdb_99666=T pbc="F F F"
C        0.07090000       1.51780000       0.19140000
C        0.01500000       0.00320000      -0.01230000
C        0.69310000      -0.47990000      -1.31550000
C        2.10850000      -0.09520000      -1.35280000
N        3.22480000       0.20280000      -1.39200000
C        0.53800000      -2.00060000      -1.48580000
C        1.37380000      -2.73290000      -2.55830000
C        1.95680000      -3.51200000      -1.36140000
O        1.17620000      -2.73210000      -0.42300000
H        1.10400000       1.87350000       0.24880000
H       -0.42190000       2.04960000      -0.63020000
H       -0.43320000       1.79920000       1.12030000
H        0.48660000      -0.51740000       0.82660000
H       -1.02810000      -0.33260000      -0.04750000
H        0.20310000       0.00130000      -2.17400000
H       -0.53870000      -2.21870000      -1.52530000
H        0.80080000      -3.31840000      -3.27780000
H        2.09160000      -2.10410000      -3.08680000
H        1.69310000      -4.57500000      -1.31740000
H        3.03090000      -3.39590000      -1.18640000
