19
Properties=species:S:1:pos:R:3 gdb_53193=T pbc="F F F"
C        0.12830000       1.56040000      -0.10590000
C        0.06670000       0.10670000      -0.06780000
C        0.00230000      -1.09590000      -0.02620000
C       -0.03770000      -2.53040000      -0.00430000
C       -0.43280000      -3.33560000       1.22780000
C       -1.19480000      -2.60630000       2.31670000
O       -2.26710000      -1.92900000       1.67100000
C       -2.59030000      -2.59590000       0.45590000
C       -1.33540000      -3.32890000       0.02410000
H        1.08130000       1.93230000       0.28720000
H        0.02250000       1.94010000      -1.12850000
H       -0.67300000       2.00380000       0.49580000
H        0.74380000      -3.00500000      -0.59300000
H        0.16800000      -4.19640000       1.49670000
H       -1.56650000      -3.33430000       3.05630000
H       -0.60390000      -1.84860000       2.84230000
H       -3.40820000      -3.32060000       0.60030000
H       -2.92530000      -1.83130000      -0.25310000
H       -1.42990000      -4.18450000      -0.63410000
