17
Properties=species:S:1:pos:R:3 gdb_128313=T pbc="F F F"
C       -0.00950000       1.43660000      -0.01640000
N       -0.08900000      -0.01920000      -0.05740000
C        0.60620000      -0.65870000      -1.05650000
N        1.19590000      -0.07020000      -2.05740000
N        1.65710000      -1.13570000      -2.82540000
C        1.37660000      -2.36700000      -2.30430000
O        1.63110000      -3.48280000      -2.71290000
N        0.68170000      -2.03120000      -1.12490000
C        0.10020000      -3.01690000      -0.24530000
H        1.01340000       1.80720000       0.13180000
H       -0.37580000       1.83830000      -0.96340000
H       -0.64810000       1.79740000       0.79230000
H       -0.00190000      -0.46500000       0.84520000
H        2.15090000      -0.96120000      -3.68130000
H        0.26300000      -3.98880000      -0.71590000
H        0.58270000      -3.02000000       0.73930000
H       -0.97310000      -2.84470000      -0.11800000
