19
Properties=species:S:1:pos:R:3 gdb_127090=T pbc="F F F"
C        0.11110000       1.42070000       0.07290000
N       -0.19320000       0.00410000       0.00450000
C        0.08580000      -0.78850000       1.19370000
C       -0.11750000      -0.58860000      -1.22340000
C        0.00510000      -0.08770000      -2.49580000
C       -0.04890000      -1.24750000      -3.31510000
C        0.02980000      -1.32770000      -4.80660000
N       -0.17800000      -2.35070000      -2.61640000
O       -0.21870000      -1.92670000      -1.26480000
H        1.18500000       1.63450000      -0.04490000
H       -0.43650000       1.95710000      -0.70630000
H       -0.21400000       1.80680000       1.04230000
H       -0.37630000      -0.30380000       2.05810000
H       -0.34120000      -1.78430000       1.08050000
H        1.16450000      -0.89150000       1.38770000
H        0.12470000       0.93560000      -2.80470000
H        0.96910000      -0.90000000      -5.17230000
H       -0.02980000      -2.36890000      -5.12930000
H       -0.78850000      -0.76850000      -5.27220000
