15
Properties=species:S:1:pos:R:3 gdb_130227=T pbc="F F F"
N       -0.07540000       1.41230000      -0.13000000
C        0.05710000       0.04620000       0.04490000
N       -0.92600000      -0.67370000       0.54380000
O       -0.41100000      -1.97230000       0.66060000
C        0.85130000      -1.98710000       0.20770000
C        1.22150000      -0.74410000      -0.19810000
C        1.58610000      -3.26230000       0.24410000
C        1.17780000      -4.37640000       1.11650000
O        0.92280000      -4.41870000      -0.28390000
H        0.39260000       1.77390000      -0.94850000
H       -1.03730000       1.72150000      -0.08210000
H        2.17090000      -0.43110000      -0.60000000
H        2.63370000      -3.17380000      -0.03850000
H        1.93720000      -5.06710000       1.48040000
H        0.29970000      -4.25500000       1.74650000
