17
Properties=species:S:1:pos:R:3 gdb_47345=T pbc="F F F"
N       -0.09590000       1.29420000      -0.09580000
C        0.16080000       0.06860000      -0.25510000
C       -0.62260000      -1.03190000       0.40450000
C       -1.03800000      -2.15250000      -0.57930000
C       -0.01070000      -2.32380000      -1.71940000
C        1.35110000      -1.72410000      -1.34460000
O        1.22490000      -0.33350000      -1.04040000
C        2.01360000      -2.45890000      -0.24680000
N        2.53240000      -3.05000000       0.59970000
H        0.57270000       1.87060000      -0.61140000
H        0.01160000      -1.46000000       1.18970000
H       -1.48450000      -0.58120000       0.89560000
H       -1.15010000      -3.08630000      -0.02280000
H       -2.01490000      -1.92330000      -1.01260000
H        0.11460000      -3.37300000      -1.99990000
H       -0.33640000      -1.78370000      -2.61380000
H        2.02680000      -1.76050000      -2.20430000
