21
Properties=species:S:1:pos:R:3 gdb_69828=T pbc="F F F"
C       -0.04100000       1.51520000       0.04200000
C        0.01010000       0.00220000       0.03520000
C       -1.21930000      -0.66490000      -0.56770000
C       -1.17320000      -2.20420000      -0.60680000
C       -0.73300000      -2.81740000       0.71610000
N        0.67800000      -3.24000000       0.80080000
C        0.22790000      -2.06680000       1.57200000
C        0.72600000      -0.71500000       1.13400000
N        1.35500000      -0.55620000      -0.18720000
H        0.86510000       1.92680000       0.49340000
H       -0.11510000       1.90770000      -0.97890000
H       -0.90880000       1.87770000       0.60500000
H       -2.09240000      -0.34030000       0.01510000
H       -1.37680000      -0.28360000      -1.58460000
H       -2.16480000      -2.57850000      -0.88030000
H       -0.49100000      -2.54250000      -1.39420000
H       -1.46610000      -3.43690000       1.22660000
H        0.77960000      -4.04790000       1.40870000
H        0.13450000      -2.18290000       2.64910000
H        1.19600000      -0.12910000       1.92180000
H        1.32620000      -1.45690000      -0.66220000
