19
Properties=species:S:1:pos:R:3 gdb_62911=T pbc="F F F"
O        0.08510000      -0.19140000       0.82010000
C        0.10490000       1.01600000       0.83430000
C        1.34280000       1.80960000       0.52150000
C        1.16750000       3.10240000      -0.33430000
O        0.42210000       3.70260000       0.79560000
C        1.62220000       3.07350000       1.39290000
C        2.49470000       3.70390000       0.25000000
C        3.84940000       3.10280000      -0.11670000
C        2.57630000       5.22860000       0.25410000
H       -0.79430000       1.61220000       1.08020000
H        2.16610000       1.13520000       0.29350000
H        0.73260000       3.20250000      -1.33030000
H        1.73470000       3.13860000       2.47650000
H        3.87160000       2.01290000      -0.13930000
H        4.15990000       3.46190000      -1.10400000
H        4.60920000       3.43570000       0.59870000
H        3.33060000       5.56710000       0.97310000
H        2.88250000       5.59560000      -0.73190000
H        1.61800000       5.67700000       0.51340000
