14
Properties=species:S:1:pos:R:3 gdb_15296=T pbc="F F F"
O       -0.27080000       0.32280000       0.77520000
C        0.32380000       0.69930000      -0.20190000
C        1.40010000       1.73280000      -0.16060000
N        2.31710000       1.75130000      -1.31770000
C        1.44380000       2.89060000      -1.11840000
C        0.37350000       3.14150000      -2.17320000
C        0.86610000       4.02690000      -3.22870000
N        1.27180000       4.73610000      -4.04540000
H        0.11750000       0.28950000      -1.21470000
H        1.78560000       1.92540000       0.83770000
H        3.27040000       1.94390000      -1.02530000
H        1.87300000       3.80230000      -0.70720000
H        0.05950000       2.19650000      -2.62480000
H       -0.51000000       3.60020000      -1.71460000
