16
Properties=species:S:1:pos:R:3 gdb_49535=T pbc="F F F"
O       -0.76260000       0.81020000       0.55300000
C        0.05610000       1.02110000      -0.30740000
C        1.26400000       1.90420000      -0.16330000
C        1.16590000       3.42690000      -0.56300000
C        0.35140000       3.65830000       0.74110000
C        1.51810000       2.70600000       1.14610000
C        2.44780000       3.65380000       0.30820000
C        3.73100000       3.16290000      -0.16870000
N        4.75780000       2.78680000      -0.54490000
H       -0.03110000       0.53760000      -1.30740000
H        2.13190000       1.39410000      -0.59640000
H        0.98750000       3.83360000      -1.55800000
H        0.38610000       4.66930000       1.15370000
H       -0.64940000       3.23650000       0.78580000
H        1.73900000       2.29850000       2.13090000
H        2.55540000       4.66500000       0.70820000
