21
Properties=species:S:1:pos:R:3 gdb_72485=T pbc="F F F"
C       -0.12410000       1.48500000       0.01040000
C        0.03890000      -0.02350000      -0.00440000
C        0.84900000      -0.58030000      -1.20800000
C        1.40750000      -1.94790000      -0.71820000
C        0.85830000      -2.09270000       0.72130000
C        0.78000000      -0.63720000       1.19860000
O       -0.46490000      -2.64130000       0.75240000
C       -1.34610000      -1.96480000      -0.11010000
O       -1.29940000      -0.56540000       0.01510000
H        0.85130000       1.97630000       0.07510000
H       -0.62820000       1.82730000      -0.89850000
H       -0.72800000       1.79270000       0.86860000
H        0.21580000      -0.66400000      -2.09530000
H        1.65730000       0.11470000      -1.45220000
H        1.10710000      -2.79130000      -1.34510000
H        2.50080000      -1.94050000      -0.68680000
H        1.46040000      -2.75240000       1.34850000
H        1.77990000      -0.20270000       1.31240000
H        0.22370000      -0.52710000       2.13150000
H       -1.14900000      -2.25780000      -1.15580000
H       -2.35780000      -2.27390000       0.16380000
