18
Properties=species:S:1:pos:R:3 gdb_91897=T pbc="F F F"
O       -0.00910000       1.42940000       0.08070000
C        0.02110000       0.01440000      -0.00020000
C       -1.42970000      -0.44930000       0.14690000
N       -1.64800000      -1.88860000      -0.09240000
C       -1.94350000      -2.30640000      -1.44450000
C       -0.62380000      -2.66010000      -0.82490000
C        0.62160000      -2.00860000      -1.33650000
O        1.58660000      -2.66420000      -1.65960000
C        0.61700000      -0.48670000      -1.32680000
H        0.89750000       1.74990000       0.12360000
H        0.61400000      -0.40520000       0.82860000
H       -1.77300000      -0.22220000       1.16040000
H       -2.04210000       0.14490000      -0.54180000
H       -2.69170000      -3.08680000      -1.55510000
H       -1.94900000      -1.55540000      -2.23320000
H       -0.46820000      -3.67680000      -0.47520000
H        0.01440000      -0.09310000      -2.15490000
H        1.64630000      -0.14470000      -1.46790000
