18
Properties=species:S:1:pos:R:3 gdb_123868=T pbc="F F F"
C       -0.22420000       1.48810000       0.13240000
C        1.23660000       1.48140000      -0.38760000
N        1.43570000       0.18800000       0.29690000
C       -0.00880000      -0.00010000       0.51270000
C        2.25240000      -0.81700000      -0.17400000
C        2.12360000      -2.19720000      -0.14520000
C        3.31330000      -2.66960000      -0.74390000
N        4.12200000      -1.69070000      -1.12370000
N        3.44950000      -0.56140000      -0.76560000
H       -0.37020000       2.13790000       0.99630000
H       -0.99790000       1.69130000      -0.60730000
H        1.31200000       1.40550000      -1.48190000
H        1.89400000       2.28590000      -0.04070000
H       -0.27800000      -0.30570000       1.52850000
H       -0.45830000      -0.70350000      -0.20240000
H        1.29950000      -2.76510000       0.25280000
H        3.60510000      -3.69610000      -0.91530000
H        3.88010000       0.33400000      -0.91640000
