18
Properties=species:S:1:pos:R:3 gdb_118606=T pbc="F F F"
C        0.01000000       1.47710000       0.18170000
C        0.15010000      -0.03340000       0.16010000
O        0.53030000      -0.42380000      -1.16040000
C        0.67320000      -1.81040000      -1.34450000
C        0.82400000      -2.06630000      -2.85230000
C       -0.42840000      -1.68860000      -3.62500000
O       -0.84190000      -2.31330000      -4.56600000
C        1.84290000      -2.34220000      -0.60660000
N        2.75680000      -2.74700000      -0.02710000
H        0.95910000       1.95440000      -0.07660000
H       -0.74900000       1.80650000      -0.53330000
H       -0.28560000       1.81100000       1.18030000
H        0.91150000      -0.36740000       0.87890000
H       -0.79960000      -0.52290000       0.42730000
H       -0.21440000      -2.34400000      -0.96380000
H        1.64990000      -1.44050000      -3.21370000
H        1.07130000      -3.11020000      -3.05660000
H       -0.93780000      -0.77040000      -3.26420000
