17
Properties=species:S:1:pos:R:3 gdb_15158=T pbc="F F F"
C       -0.68100000       0.61230000       0.15060000
N        0.62430000      -0.01030000       0.22410000
C        0.78950000      -0.89810000       1.09730000
O        1.99640000      -1.50080000       1.23420000
C        2.06640000      -2.55420000       2.19010000
C        1.47360000      -3.83710000       1.66660000
C        0.87410000      -4.82170000       2.57490000
O        0.05250000      -3.96600000       1.78040000
H       -1.09960000       0.47020000      -0.85230000
H       -1.40600000       0.22480000       0.88490000
H       -0.58190000       1.69330000       0.30260000
H        0.02230000      -1.25280000       1.80000000
H        3.13250000      -2.68740000       2.39650000
H        1.56320000      -2.27050000       3.12400000
H        1.87930000      -4.17910000       0.71450000
H        0.86580000      -5.87360000       2.29570000
H        0.85440000      -4.62620000       3.64650000
