16
Properties=species:S:1:pos:R:3 gdb_69903=T pbc="F F F"
O       -0.09890000       1.43570000       0.23570000
C       -0.00430000       0.06660000       0.10980000
C       -0.83590000      -0.85760000       0.92670000
C        0.68050000      -0.98770000       0.97690000
C        1.24470000      -1.64830000      -0.30380000
N        0.17560000      -2.05610000      -1.19440000
C        0.55540000      -0.61700000      -1.17720000
C        1.16450000      -0.01220000      -2.35680000
O        1.60130000      -0.66020000      -3.28830000
H        0.78740000       1.81560000       0.21630000
H       -1.24260000      -0.38140000       1.81330000
H       -1.45010000      -1.62670000       0.47600000
H        1.24560000      -0.87630000       1.89220000
H        2.26010000      -2.00430000      -0.42850000
H        0.59790000      -2.42610000      -2.05020000
H        1.21790000       1.09630000      -2.34970000
