12
Properties=species:S:1:pos:R:3 gdb_24547=T pbc="F F F"
O       -0.05990000       1.31000000       0.00990000
C        1.12500000       1.96640000       0.00180000
C        2.31820000       1.31330000      -0.01340000
N        2.45250000      -0.05200000      -0.02220000
C        1.31900000      -0.69240000      -0.01460000
N        1.06070000      -2.03730000      -0.01940000
C       -0.26020000      -2.06830000      -0.00660000
N       -0.97210000      -0.86270000       0.00700000
C        0.01230000      -0.01760000       0.00190000
H        0.99580000       3.03880000       0.00890000
H        3.23220000       1.89550000      -0.01920000
H       -0.81050000      -3.00160000      -0.00630000
