23
Properties=species:S:1:pos:R:3 gdb_39510=T pbc="F F F"
C        0.01950000       1.54770000      -0.24150000
C        1.14030000       2.43370000       0.33140000
C        2.58790000       2.16960000      -0.14360000
C        2.74330000       1.91940000      -1.64990000
C        2.43230000       0.53870000      -2.20320000
O        3.21170000      -0.57570000      -1.75690000
C        1.79440000      -0.62000000      -1.54330000
C        1.31500000      -0.70140000      -0.10820000
C        0.01660000       0.07120000       0.18170000
H       -0.93960000       1.98470000       0.06300000
H        0.03260000       1.61210000      -1.33600000
H        0.89150000       3.47070000       0.07050000
H        1.11490000       2.39030000       1.42840000
H        3.18060000       3.05550000       0.11310000
H        3.05130000       1.34740000       0.40670000
H        2.12470000       2.63790000      -2.20540000
H        3.77850000       2.13620000      -1.94470000
H        2.32630000       0.55950000      -3.29230000
H        1.27980000      -1.30850000      -2.21980000
H        1.16050000      -1.75960000       0.13600000
H        2.11540000      -0.35870000       0.54840000
H       -0.18850000      -0.00080000       1.25760000
H       -0.82430000      -0.42790000      -0.31750000
