19
Properties=species:S:1:pos:R:3 gdb_100479=T pbc="F F F"
C        0.24950000       1.44760000       0.14720000
O        0.46910000       0.06080000       0.01690000
C        0.63070000      -0.62090000       1.25720000
C       -0.71740000      -0.89530000       1.94440000
C        1.35370000      -1.86560000       0.99810000
C        1.94650000      -2.89710000       0.81090000
C        2.63480000      -4.13900000       0.59060000
C        3.55110000      -4.32330000      -0.55300000
O        4.06340000      -4.15080000       0.76080000
H        1.05720000       1.93520000       0.71530000
H        0.23240000       1.86090000      -0.86400000
H       -0.70720000       1.68500000       0.63510000
H        1.24980000      -0.00070000       1.92850000
H       -1.34900000      -1.50360000       1.29240000
H       -0.56150000      -1.43080000       2.88470000
H       -1.23580000       0.04160000       2.16580000
H        2.14220000      -5.02590000       0.98780000
H        3.66760000      -5.31820000      -0.98130000
H        3.71210000      -3.49070000      -1.23480000
