17
Properties=species:S:1:pos:R:3 gdb_80505=T pbc="F F F"
C       -0.10360000       1.58370000      -0.03500000
C        0.02950000       0.08340000       0.10670000
N        1.19700000      -0.71770000      -0.28800000
C        2.43460000       0.06570000       0.07240000
C        2.10130000       0.03790000       1.57590000
O        2.09310000       1.28870000       2.21060000
C        0.76280000      -0.63030000       1.19330000
C        0.19930000      -1.72790000       1.91740000
N       -0.24470000      -2.58720000       2.55370000
H        0.69570000       2.13580000       0.45560000
H       -0.13570000       1.85500000      -1.09590000
H       -1.04970000       1.89950000       0.41540000
H       -0.87030000      -0.45360000      -0.18900000
H        3.32280000      -0.50620000      -0.19610000
H        2.48830000       1.05790000      -0.37980000
H        2.73110000      -0.68110000       2.11240000
H        1.90220000       1.16390000       3.14640000
