19
Properties=species:S:1:pos:R:3 gdb_10914=T pbc="F F F"
C       -0.26010000       1.54060000       0.06690000
C        0.05910000       0.05720000       0.02340000
C        1.14380000      -0.47770000      -0.96840000
O        1.92570000       0.44360000      -1.70210000
C        1.86490000      -1.04470000       0.24780000
C        2.46220000      -2.41750000       0.33230000
C        2.14660000       0.04650000       1.20060000
N        0.78810000      -0.53610000       1.20650000
H        0.63700000       2.16260000       0.03040000
H       -0.88830000       1.81910000      -0.78670000
H       -0.81310000       1.77930000       0.98110000
H       -0.86870000      -0.51310000      -0.08570000
H        0.74990000      -1.26590000      -1.62300000
H        1.42060000       0.72380000      -2.47210000
H        3.39450000      -2.46850000      -0.24210000
H        2.68830000      -2.67730000       1.37040000
H        1.77910000      -3.17630000      -0.06510000
H        2.70950000      -0.21580000       2.09160000
H        2.31160000       1.05830000       0.84580000
