14
Properties=species:S:1:pos:R:3 gdb_23428=T pbc="F F F"
O       -0.11950000       1.31650000      -0.00800000
N        0.03080000      -0.07350000      -0.01480000
C       -1.09410000      -0.64870000      -0.07690000
C       -2.55920000      -0.27350000       0.03250000
N       -2.91070000      -1.73970000       0.22430000
C       -2.48510000      -2.44710000      -1.00120000
C       -2.55030000      -1.84590000      -2.31080000
N       -2.62950000      -1.37600000      -3.36440000
C       -1.43990000      -2.08850000       0.00860000
H        0.79230000       1.62460000       0.04120000
H       -2.78790000       0.28310000       0.94370000
H       -3.04170000       0.20080000      -0.82480000
H       -2.79930000      -3.48740000      -0.98800000
H       -0.92040000      -2.85610000       0.57070000
