15
Properties=species:S:1:pos:R:3 gdb_132964=T pbc="F F F"
C       -0.01100000       1.45470000       0.00710000
N        0.00380000      -0.00470000      -0.02850000
C       -0.10620000      -0.67800000      -1.21160000
C       -0.09180000      -2.03560000      -1.23560000
F       -0.20020000      -2.68740000      -2.40070000
C        0.03760000      -2.76520000      -0.03220000
C        0.14730000      -2.09550000       1.14830000
C        0.13720000      -0.64840000       1.22530000
O        0.23080000       0.02360000       2.24370000
H        0.91430000       1.82500000       0.45460000
H       -0.11690000       1.83850000      -1.00800000
H       -0.83870000       1.80300000       0.62920000
H       -0.20380000      -0.09010000      -2.11480000
H        0.04670000      -3.84930000      -0.07500000
H        0.24820000      -2.61500000       2.09280000
