25
Properties=species:S:1:pos:R:3 gdb_112714=T pbc="F F F"
C        0.49390000       0.93260000       0.50770000
O        0.36620000      -0.40030000       0.07640000
C        0.54600000      -0.58050000      -1.32650000
C        2.03550000      -0.57570000      -1.75620000
C        2.46950000      -2.05550000      -1.74740000
C        2.86450000      -2.53260000      -0.34240000
C        1.21130000      -2.74760000      -2.33540000
C        1.13630000      -4.26770000      -2.19860000
C        0.02950000      -1.99420000      -1.68350000
H        1.50420000       1.33790000       0.34640000
H       -0.22340000       1.59410000      -0.00440000
H        0.28300000       0.94760000       1.58020000
H       -0.01510000       0.20830000      -1.84950000
H        2.11060000      -0.17510000      -2.77440000
H        2.65000000       0.06220000      -1.11380000
H        3.32590000      -2.21040000      -2.41450000
H        2.05840000      -2.37570000       0.37980000
H        3.13500000      -3.59290000      -0.33540000
H        3.73440000      -1.97040000       0.01450000
H        1.20690000      -2.50950000      -3.40870000
H        1.09110000      -4.57650000      -1.14920000
H        0.24140000      -4.65980000      -2.69400000
H        2.00540000      -4.75430000      -2.65510000
H       -0.27820000      -2.47790000      -0.75110000
H       -0.84930000      -1.96390000      -2.33350000
