23
Properties=species:S:1:pos:R:3 gdb_61049=T pbc="F F F"
C       -0.09290000       1.51960000       0.02070000
C        0.05580000      -0.00520000      -0.10890000
C        0.91820000      -0.34060000      -1.30970000
O        0.65730000      -1.15700000      -2.15640000
C        0.70860000      -0.60940000       1.14430000
C       -0.00530000      -0.46280000       2.51760000
C        0.49510000      -1.88680000       2.87990000
C        0.75020000      -2.16100000       1.36740000
C       -0.36020000      -2.96770000       0.69580000
H        0.88500000       2.00520000       0.11820000
H       -0.59650000       1.94830000      -0.85120000
H       -0.67950000       1.77340000       0.90800000
H       -0.92480000      -0.46260000      -0.27350000
H        1.87540000       0.23520000      -1.35130000
H        1.72910000      -0.21330000       1.23020000
H        0.30120000       0.36490000       3.16140000
H       -1.09350000      -0.42790000       2.40670000
H        1.42170000      -1.85900000       3.45960000
H       -0.21120000      -2.55070000       3.38530000
H        1.71600000      -2.61990000       1.13530000
H       -1.35430000      -2.58040000       0.94720000
H       -0.26340000      -2.95830000      -0.39360000
H       -0.32310000      -4.00880000       1.03410000
