16
Properties=species:S:1:pos:R:3 gdb_75774=T pbc="F F F"
C       -0.55570000       1.29390000       0.04330000
C        0.11120000      -0.06620000      -0.07310000
C        1.42900000      -0.21900000      -0.85310000
O        1.85040000       0.26340000      -1.85990000
C        2.02190000      -1.15880000       0.21350000
C        0.86730000      -0.68330000       1.16170000
O        1.25830000       0.36470000       2.01970000
C        0.16120000      -1.73960000       1.89340000
N       -0.37780000      -2.57760000       2.47990000
H        0.11800000       2.02090000       0.49930000
H       -0.82700000       1.64960000      -0.95470000
H       -1.46520000       1.23710000       0.64770000
H       -0.58920000      -0.81670000      -0.46090000
H        1.94730000      -2.21060000      -0.07730000
H        3.03430000      -0.94260000       0.56080000
H        1.83040000       0.00520000       2.70750000
