18
Properties=species:S:1:pos:R:3 gdb_51192=T pbc="F F F"
O       -0.06380000      -0.11190000      -0.21120000
C        0.01270000       1.08210000      -0.08090000
C        1.30740000       1.86930000      -0.07350000
C        1.33640000       2.91140000      -1.17350000
C        1.37860000       2.50890000      -2.67860000
C        2.05510000       3.85730000      -2.90510000
C        2.48660000       3.95510000      -1.49260000
N        1.44540000       4.89330000      -1.99400000
C        0.40890000       4.14490000      -1.21330000
H       -0.90530000       1.70310000       0.04070000
H        1.38770000       2.37230000       0.90150000
H        2.14020000       1.16560000      -0.16680000
H        2.07870000       1.68850000      -2.85750000
H        0.42500000       2.29730000      -3.17470000
H        2.53720000       4.23730000      -3.79560000
H        3.40390000       4.25410000      -1.00230000
H       -0.56950000       4.04950000      -1.69960000
H        0.29420000       4.63320000      -0.24110000
