19
Properties=species:S:1:pos:R:3 gdb_69465=T pbc="F F F"
C        0.13310000       1.59850000       0.12590000
C       -0.08320000       0.12210000       0.17710000
C       -1.41240000      -0.65340000       0.20810000
C       -0.66950000      -1.81110000       0.98000000
C       -0.60930000      -3.20670000       0.34990000
C       -1.96810000      -3.85980000       0.26710000
O       -2.26360000      -4.90730000       0.78380000
C        0.61510000      -0.96970000       0.88100000
O        0.85240000      -0.72810000      -0.51170000
H        1.19090000       1.83500000       0.26770000
H       -0.17990000       2.00320000      -0.84320000
H       -0.44880000       2.10310000       0.90390000
H       -2.18690000      -0.17600000       0.81280000
H       -1.81870000      -0.89640000      -0.77730000
H       -1.02140000      -1.86980000       2.01440000
H       -0.21340000      -3.09680000      -0.66880000
H        0.05600000      -3.86610000       0.91590000
H       -2.72160000      -3.28530000      -0.32140000
H        1.47880000      -0.96640000       1.53750000
