18
Properties=species:S:1:pos:R:3 gdb_36238=T pbc="F F F"
C        0.03350000      -1.20160000       0.12470000
C       -0.03110000      -0.00630000       0.01430000
C       -0.06370000       1.44640000      -0.11020000
C        1.33220000       2.07540000       0.00650000
C        1.51390000       3.57970000       0.09610000
C        1.47510000       3.99320000       1.53430000
C        1.26360000       2.76570000       2.40030000
C        2.12430000       2.06240000       1.33400000
N        2.74820000       3.44800000       0.94510000
H        0.07490000      -2.25840000       0.21810000
H       -0.49640000       1.72330000      -1.08060000
H       -0.73340000       1.86760000       0.64860000
H        1.97860000       1.68480000      -0.78550000
H        1.46660000       4.30580000      -0.70840000
H        1.39690000       5.03590000       1.82130000
H        1.81570000       2.86040000       3.33880000
H        0.25310000       2.39930000       2.60720000
H        2.77650000       1.23020000       1.58760000
