21
Properties=species:S:1:pos:R:3 gdb_73684=T pbc="F F F"
C       -0.14870000       1.58430000       0.00010000
C       -0.03530000       0.05820000      -0.00450000
C       -1.40200000      -0.64930000       0.09210000
C       -1.07000000      -1.93460000       0.85260000
O       -0.03910000      -1.56710000       1.76590000
C        0.72530000      -0.49290000       1.24490000
O        2.00420000      -0.88510000       0.82100000
C        1.89580000      -1.36150000      -0.51690000
C        0.84840000      -0.45180000      -1.18200000
H        0.84210000       2.04930000       0.03770000
H       -0.65070000       1.94340000      -0.90490000
H       -0.72240000       1.93840000       0.86320000
H       -2.09550000      -0.04060000       0.68220000
H       -1.86240000      -0.83190000      -0.88260000
H       -1.90940000      -2.32940000       1.43230000
H       -0.72660000      -2.72980000       0.17310000
H        0.87920000       0.22220000       2.05780000
H        2.88650000      -1.29830000      -0.97430000
H        1.58310000      -2.41530000      -0.52690000
H        0.26770000      -0.97900000      -1.94350000
H        1.33960000       0.39380000      -1.67130000
