21
Properties=species:S:1:pos:R:3 gdb_53351=T pbc="F F F"
C        0.38250000       1.56450000      -0.58100000
C        0.21950000       0.14530000      -0.29710000
C        0.08870000      -1.02950000      -0.06290000
C       -0.05920000      -2.44820000       0.22730000
C        0.27730000      -2.85080000       1.69640000
C       -0.58400000      -4.07180000       1.90560000
C       -1.51350000      -4.19590000       0.96050000
C       -1.48010000      -3.06430000      -0.04440000
C       -2.65480000      -2.09320000       0.15300000
H        1.19440000       1.99910000       0.01300000
H        0.61860000       1.73690000      -1.63720000
H       -0.53010000       2.12590000      -0.35120000
H        0.63750000      -3.00470000      -0.41240000
H        1.34810000      -3.04050000       1.82590000
H        0.01510000      -2.05130000       2.40160000
H       -0.45970000      -4.73500000       2.75490000
H       -2.26950000      -4.97350000       0.92270000
H       -1.52200000      -3.43840000      -1.07470000
H       -2.65150000      -1.66930000       1.16220000
H       -2.60370000      -1.26710000      -0.56140000
H       -3.60810000      -2.61310000       0.01150000
