19
Properties=species:S:1:pos:R:3 gdb_118924=T pbc="F F F"
C       -0.09460000       1.54750000       0.06610000
C       -0.01870000       0.01930000       0.03180000
C        0.64150000      -0.50300000      -1.25020000
C        0.72280000      -2.02650000      -1.31570000
O       -0.58370000      -2.53500000      -1.28430000
C        1.70230000      -2.59080000      -2.38260000
O        2.61750000      -3.02250000      -1.32570000
C        1.74740000      -2.65040000      -0.33050000
O        1.85800000      -2.83010000       0.83960000
H        0.90290000       1.99870000       0.01860000
H       -0.67390000       1.93670000      -0.77880000
H       -0.57310000       1.89720000       0.98580000
H        0.54110000      -0.34780000       0.89950000
H       -1.02290000      -0.40880000       0.10840000
H        0.07590000      -0.16720000      -2.12950000
H        1.65440000      -0.09310000      -1.34840000
H       -0.56020000      -3.47670000      -1.08310000
H        1.32070000      -3.44790000      -2.94270000
H        2.18430000      -1.87230000      -3.04820000
