22
Properties=species:S:1:pos:R:3 gdb_86909=T pbc="F F F"
C        0.01200000       1.50200000       0.39620000
N        0.06630000       0.05920000       0.34230000
C       -1.20280000      -0.69530000       0.35700000
C       -0.50600000      -1.77110000       1.20860000
C        0.54840000      -0.67500000       1.52820000
O       -1.30080000      -2.28510000       2.24440000
C       -0.71370000      -3.34610000       2.93540000
C        0.18720000      -3.07130000       4.11380000
C       -1.22030000      -3.60060000       4.31580000
H        1.02630000       1.91000000       0.46510000
H       -0.44340000       1.89130000      -0.52090000
H       -0.57040000       1.88430000       1.25670000
H       -1.99840000      -0.21010000       0.94650000
H       -1.59640000      -0.97170000      -0.62640000
H       -0.08290000      -2.58240000       0.60250000
H        1.61240000      -0.93360000       1.51540000
H        0.30230000      -0.17680000       2.48090000
H       -0.47510000      -4.20430000       2.30560000
H        1.02760000      -3.73350000       4.29190000
H        0.36200000      -2.03310000       4.37040000
H       -1.95950000      -2.90260000       4.69160000
H       -1.35670000      -4.62660000       4.63780000
