13
Properties=species:S:1:pos:R:3 gdb_132454=T pbc="F F F"
N        0.05170000       1.37000000       0.03390000
C       -0.02370000      -0.00730000       0.02770000
C       -1.15390000      -0.75490000       0.10740000
N       -1.14020000      -2.14510000       0.16610000
C       -0.00250000      -2.68610000       0.13710000
F        0.16140000      -3.98470000       0.19320000
O        1.19680000      -2.08950000       0.04600000
C        1.26260000      -0.69900000      -0.03110000
N        2.36870000      -0.09540000      -0.15420000
H        0.93600000       1.72480000      -0.30370000
H       -0.75850000       1.86730000      -0.30140000
H       -2.13660000      -0.29830000       0.13740000
H        3.15740000      -0.73890000      -0.18820000
