17
Properties=species:S:1:pos:R:3 gdb_131722=T pbc="F F F"
O        0.11710000       1.30040000       0.46090000
C       -0.02470000       0.03990000      -0.18470000
C       -1.42320000      -0.44910000       0.03120000
N       -1.64830000      -1.76090000       0.23710000
N       -2.98400000      -1.79220000       0.31220000
C       -4.17670000      -2.58770000       0.63170000
C       -4.96700000      -1.22310000       0.48060000
C       -3.59950000      -0.60590000       0.20610000
C       -2.61230000       0.33940000       0.01150000
H        0.96770000       1.66700000       0.20210000
H        0.17530000       0.13680000      -1.26470000
H        0.67420000      -0.71070000       0.21090000
H       -4.40800000      -3.36420000      -0.10200000
H       -4.17000000      -3.01230000       1.63900000
H       -5.68030000      -1.19980000      -0.34630000
H       -5.46290000      -0.88930000       1.39470000
H       -2.67730000       1.40620000      -0.11210000
