18
Properties=species:S:1:pos:R:3 gdb_51826=T pbc="F F F"
N        0.15110000       1.15750000       0.51660000
C        0.09870000      -0.03340000       0.09830000
O        1.16510000      -0.73260000      -0.38390000
C        0.77120000      -2.07270000      -0.73550000
C       -0.53210000      -2.31840000       0.02900000
C       -1.14460000      -0.90740000       0.06650000
C       -2.14140000      -0.65820000       1.20960000
C       -2.94860000       0.61960000       1.04630000
O       -4.15380000       0.64640000       1.08030000
H        1.09740000       1.53240000       0.43500000
H        0.62610000      -2.12540000      -1.82160000
H        1.58700000      -2.74360000      -0.45810000
H       -1.17390000      -3.05860000      -0.45260000
H       -0.31710000      -2.66140000       1.04700000
H       -1.64480000      -0.72140000      -0.89500000
H       -2.84960000      -1.48870000       1.28610000
H       -1.58570000      -0.58830000       2.15400000
H       -2.34350000       1.53440000       0.89470000
