22
Properties=species:S:1:pos:R:3 gdb_101691=T pbc="F F F"
C        0.18650000       1.58480000      -0.40830000
C       -0.01020000       0.10470000      -0.14190000
C       -1.42900000      -0.43430000      -0.27440000
C       -2.38600000       0.02380000       0.82830000
O       -2.70960000       1.42290000       0.75090000
C       -3.69310000      -0.77380000       0.84700000
O       -4.57770000      -0.27420000       1.82500000
C        1.12700000      -0.81150000      -0.42190000
N        0.73480000      -0.51590000       0.97040000
H        1.24240000       1.85970000      -0.31430000
H       -0.13230000       1.84510000      -1.42480000
H       -0.39990000       2.19000000       0.28750000
H       -1.84210000      -0.16420000      -1.25780000
H       -1.38640000      -1.52870000      -0.24410000
H       -1.89250000      -0.08870000       1.79930000
H       -3.03530000       1.59680000      -0.14070000
H       -4.14810000      -0.74370000      -0.16190000
H       -3.49370000      -1.82490000       1.08270000
H       -4.47100000       0.68590000       1.79460000
H        0.94380000      -1.83490000      -0.73980000
H        2.04770000      -0.38020000      -0.80720000
H        1.38190000       0.15600000       1.37580000
