16
Properties=species:S:1:pos:R:3 gdb_26889=T pbc="F F F"
N        0.10700000       1.34350000      -0.23420000
C       -0.02170000      -0.00780000      -0.08910000
C       -1.21650000      -0.66570000       0.01110000
N       -2.41210000       0.12690000       0.04280000
C       -1.16220000      -2.09000000       0.08430000
C        0.01420000      -2.76580000       0.07170000
C        1.26580000      -2.05930000      -0.02270000
N        2.41940000      -2.59250000      -0.03410000
O        1.15900000      -0.65110000      -0.10810000
H        0.97560000       1.74180000       0.08850000
H       -0.73730000       1.84490000       0.00550000
H       -3.02310000      -0.15650000       0.80250000
H       -2.94870000       0.03690000      -0.81560000
H       -2.09960000      -2.63510000       0.15890000
H        0.07500000      -3.84340000       0.13280000
H        3.14710000      -1.88270000      -0.11140000
