18
Properties=species:S:1:pos:R:3 gdb_90392=T pbc="F F F"
C       -0.19900000       1.53290000      -0.05840000
C        0.06790000       0.04730000       0.03360000
O        1.14570000      -0.44130000      -0.83180000
C        1.68340000      -1.18710000       0.24320000
C        2.21190000      -0.28110000       1.33580000
C        2.81150000       0.99950000       1.07940000
N        3.31890000       2.02290000       0.89510000
C        0.71740000      -0.62420000       1.25480000
C       -0.02730000      -1.21990000       2.41280000
H        0.67820000       2.12770000       0.19710000
H       -0.50620000       1.78840000      -1.07740000
H       -1.01960000       1.80060000       0.61610000
H       -0.84100000      -0.51630000      -0.21890000
H        2.07330000      -2.17990000       0.04770000
H        2.69710000      -0.82510000       2.14290000
H       -0.38480000      -0.44130000       3.09600000
H       -0.89630000      -1.78880000       2.06520000
H        0.60800000      -1.89880000       2.98970000
