12
Properties=species:S:1:pos:R:3 gdb_1605=T pbc="F F F"
C       -0.05070000       1.57430000      -0.10230000
C        0.03500000       0.05820000       0.13050000
O        0.68520000      -0.22700000       1.33480000
C       -1.34160000      -0.58730000       0.12680000
O       -1.75660000      -1.23150000       1.06090000
C       -2.14970000      -0.40760000      -1.08870000
N       -2.76610000      -0.25970000      -2.05570000
H        0.96090000       1.98490000      -0.08270000
H       -0.50400000       1.80520000      -1.07010000
H       -0.63210000       2.04930000       0.69270000
H        0.57930000      -0.39250000      -0.72000000
H        0.09960000      -0.80960000       1.84130000
