13
Properties=species:S:1:pos:R:3 gdb_64638=T pbc="F F F"
C       -0.03290000       1.54640000      -0.00480000
C       -0.00590000       0.00590000      -0.02200000
N        0.80020000      -0.50810000      -1.14480000
C        1.74730000      -1.15570000      -0.60860000
O        1.81200000      -1.24220000       0.75990000
C        0.71780000      -0.53180000       1.24090000
O        0.48550000      -0.38560000       2.39320000
C       -1.36790000      -0.53730000      -0.08940000
N       -2.44300000      -0.95580000      -0.13490000
H        0.98990000       1.92940000       0.02650000
H       -0.52190000       1.91130000      -0.90910000
H       -0.57630000       1.89470000       0.87600000
H        2.54890000      -1.66460000      -1.12950000
