14
Properties=species:S:1:pos:R:3 gdb_132638=T pbc="F F F"
N        0.02430000       1.42800000       0.12140000
C       -0.01550000       0.01810000       0.03910000
C       -1.15770000      -0.75390000       0.11390000
N       -1.14840000      -2.09880000       0.08380000
C        0.04540000      -2.62980000      -0.04460000
F        0.08800000      -3.95210000      -0.10290000
N        1.22390000      -2.03250000      -0.11450000
C        1.20080000      -0.70090000      -0.05970000
N        2.38850000      -0.02210000      -0.14260000
H        0.46740000       1.84520000      -0.69200000
H       -0.89960000       1.83050000       0.22620000
H       -2.13380000      -0.28070000       0.20840000
H        3.20840000      -0.59560000      -0.00820000
H        2.40610000       0.87550000       0.32100000
