15
Properties=species:S:1:pos:R:3 gdb_27700=T pbc="F F F"
C        0.07230000       1.42440000       0.00170000
C       -0.04200000      -0.05670000      -0.00530000
N       -1.12890000      -0.76990000       0.07710000
C       -0.69440000      -2.07880000       0.02570000
N       -1.59150000      -3.12100000       0.02870000
C        0.67500000      -2.10520000      -0.08310000
O        1.08880000      -0.77310000      -0.10670000
C        1.60820000      -3.13860000      -0.16080000
C        2.38300000      -4.06300000      -0.21700000
H        0.69590000       1.76450000       0.83480000
H        0.53500000       1.78400000      -0.92310000
H       -0.92280000       1.85900000       0.09670000
H       -2.47030000      -2.89550000       0.47150000
H       -1.21340000      -4.01100000       0.31800000
H        3.06890000      -4.87050000      -0.28150000
