15
Properties=species:S:1:pos:R:3 gdb_79002=T pbc="F F F"
O        0.23680000       1.41700000      -0.28710000
C        0.05500000       0.09680000       0.01550000
C       -1.35700000      -0.68820000      -0.18940000
C       -2.09920000      -0.72860000      -1.54410000
C       -1.04500000      -0.99870000      -2.67870000
N        0.23310000      -0.47400000      -2.27970000
C        0.35700000      -0.91580000      -1.07610000
N       -0.60230000      -1.94410000      -0.61310000
C       -1.50810000      -2.10380000      -1.78780000
H        0.21830000       1.46490000      -1.25790000
H        0.39770000      -0.10410000       1.03210000
H       -1.97160000      -0.78850000       0.70630000
H       -3.07370000      -0.32500000      -1.77760000
H       -1.37590000      -0.90640000      -3.70490000
H       -1.92340000      -3.06310000      -2.06290000
