14
Properties=species:S:1:pos:R:3 gdb_3735=T pbc="F F F"
C       -0.02670000       1.53860000       0.01020000
C       -0.02500000       0.00990000       0.00270000
N       -1.37130000      -0.54440000       0.01250000
N       -2.03020000      -0.77500000       1.14230000
C       -3.22840000      -1.19290000       0.72660000
C       -3.24020000      -1.18930000      -0.67360000
N       -2.04900000      -0.76920000      -1.10720000
H        1.00150000       1.91220000       0.00240000
H       -0.54350000       1.92690000      -0.87150000
H       -0.52690000       1.91830000       0.90500000
H        0.46530000      -0.37890000      -0.89210000
H        0.48220000      -0.38740000       0.88420000
H       -3.99440000      -1.47360000       1.43150000
H       -4.01790000      -1.46640000      -1.36700000
