18
Properties=species:S:1:pos:R:3 gdb_103267=T pbc="F F F"
C       -0.46390000       0.99190000       0.00900000
O        0.37890000      -0.14590000      -0.09050000
C        0.83650000      -0.63290000       1.12830000
C        2.04010000       0.08710000       1.70200000
C       -0.11770000      -1.24380000       2.10790000
O       -1.26430000      -1.78950000       1.41710000
C       -0.43490000      -2.69050000       0.73940000
N       -0.72520000      -3.64240000      -0.01740000
C        0.82950000      -2.14690000       1.32200000
H        0.05460000       1.85550000       0.44790000
H       -0.76200000       1.24590000      -1.01010000
H       -1.35930000       0.76890000       0.60180000
H        1.81350000       1.14240000       1.88180000
H        2.35320000      -0.35530000       2.65230000
H        2.87790000       0.03090000       1.00120000
H       -0.22250000      -1.04170000       3.16610000
H       -1.73460000      -3.71190000      -0.15560000
H        1.70400000      -2.71370000       1.60680000
