18
Properties=species:S:1:pos:R:3 gdb_106018=T pbc="F F F"
C       -0.55810000       1.36340000       0.13270000
C        0.34510000       0.14130000      -0.08040000
C        0.86750000      -0.42780000       1.20320000
C        2.04550000      -0.03610000       2.07570000
C        1.48290000      -0.97650000       3.21110000
C        2.10830000      -2.11890000       2.39880000
N        2.15520000      -1.20820000       1.19140000
C        0.14030000      -0.78150000       2.47370000
O       -1.00300000      -0.70010000       2.82700000
H       -0.00800000       2.18230000       0.60800000
H       -0.94340000       1.72800000      -0.82370000
H       -1.40750000       1.11250000       0.77330000
H       -0.21050000      -0.64540000      -0.60580000
H        1.19810000       0.39180000      -0.72020000
H        2.66010000       0.85320000       2.05290000
H        1.55120000      -0.86780000       4.28990000
H        3.13730000      -2.35670000       2.67760000
H        1.52880000      -3.04000000       2.26960000
