16
Properties=species:S:1:pos:R:3 gdb_127990=T pbc="F F F"
C        0.02800000       1.43640000       0.05130000
N        0.03390000      -0.01410000      -0.02200000
C        0.56740000      -0.67280000       0.91080000
O        1.14410000       0.01810000       2.00080000
N        1.74270000      -0.64390000       3.05180000
C        1.74720000      -1.92440000       2.98550000
C        1.16180000      -2.67250000       1.87680000
C        1.22060000      -4.16970000       1.89680000
N        0.60260000      -2.05910000       0.89450000
H        1.04460000       1.84930000       0.09430000
H       -0.47120000       1.83270000      -0.83540000
H       -0.50070000       1.80010000       0.94230000
H        2.22270000      -2.42710000       3.82200000
H        0.71800000      -4.56260000       2.78860000
H        0.74280000      -4.57260000       1.00390000
H        2.26090000      -4.51340000       1.94100000
