19
Properties=species:S:1:pos:R:3 gdb_108470=T pbc="F F F"
C       -0.60550000       1.30020000       0.00440000
C        0.08630000      -0.03290000      -0.15390000
O        1.32920000       0.03310000      -0.92490000
C        2.07540000      -0.63140000       0.10500000
C        2.69180000       0.34010000       1.11900000
O        1.45700000       0.37090000       1.88800000
C        0.85050000      -0.64300000       1.04320000
C        0.25610000      -1.74740000       1.87710000
O       -0.73960000      -1.21550000       2.73610000
H       -0.85000000       1.71800000      -0.97670000
H       -1.53460000       1.16830000       0.56810000
H        0.03410000       2.00250000       0.54320000
H       -0.58450000      -0.77200000      -0.61480000
H        2.64940000      -1.48820000      -0.25270000
H        3.51610000      -0.07150000       1.71490000
H        2.96450000       1.32220000       0.72090000
H       -0.23440000      -2.49190000       1.24170000
H        1.05140000      -2.25560000       2.44450000
H       -0.31110000      -0.51360000       3.24130000
