18
Properties=species:S:1:pos:R:3 gdb_128126=T pbc="F F F"
C       -0.00720000       1.38670000       0.28510000
N       -0.05680000       0.06270000      -0.31640000
C       -1.18100000      -0.72010000      -0.14090000
C       -1.25820000      -2.10130000      -0.02680000
N       -0.12180000      -2.95790000       0.00270000
C       -2.65310000      -2.36860000       0.04060000
N       -3.24900000      -3.63140000       0.08720000
N       -3.38390000      -1.26440000      -0.00340000
N       -2.44980000      -0.25630000      -0.10980000
H        0.98430000       1.81300000       0.11710000
H       -0.72780000       2.05410000      -0.20100000
H       -0.21400000       1.39090000       1.36650000
H        0.76940000      -0.49990000      -0.15550000
H       -0.05710000      -3.48900000       0.86610000
H       -0.13040000      -3.62840000      -0.76000000
H       -2.75960000      -4.27410000       0.69680000
H       -4.22280000      -3.56690000       0.35710000
H       -2.77100000       0.68180000      -0.26150000
