20
Properties=species:S:1:pos:R:3 gdb_30344=T pbc="F F F"
C       -0.09990000       1.57720000      -0.02390000
C        0.02200000       0.05150000       0.02060000
C        0.80220000      -0.54790000      -1.19250000
C        1.48040000      -1.85990000      -0.69740000
C        1.63180000      -1.59050000       0.77390000
C        2.29420000      -2.05650000       1.88170000
N        1.88110000      -1.28100000       2.94560000
C        0.97170000      -0.33090000       2.53010000
C        0.80370000      -0.50990000       1.17920000
H        0.89010000       2.04570000      -0.01620000
H       -0.62490000       1.90510000      -0.92790000
H       -0.65720000       1.95720000       0.83900000
H       -0.99510000      -0.36970000       0.02660000
H        0.16190000      -0.70310000      -2.06620000
H        1.58250000       0.16540000      -1.48440000
H        0.83040000      -2.72660000      -0.88030000
H        2.42150000      -2.05860000      -1.22070000
H        3.01300000      -2.84770000       2.02380000
H        2.22860000      -1.36760000       3.88440000
H        0.54850000       0.36940000       3.23240000
