9
Properties=species:S:1:pos:R:3 gdb_23827=T pbc="F F F"
F        0.04250000       0.07160000       0.00380000
C       -0.06410000       1.37080000       0.01040000
N       -1.20160000       1.93160000       0.02950000
C       -1.19770000       3.33080000       0.03740000
O       -2.19490000       4.00640000       0.05440000
C        0.16260000       3.94200000       0.02220000
N        1.27290000       3.31150000       0.00380000
O        1.15910000       1.89620000      -0.00260000
H        0.24850000       5.02460000       0.02670000
