20
Properties=species:S:1:pos:R:3 gdb_91712=T pbc="F F F"
C       -0.17590000       1.55490000       0.01350000
C        0.02370000       0.04090000       0.00440000
C        0.89470000      -0.49620000      -1.18250000
C        1.99650000      -1.34770000      -0.47420000
C        1.20670000      -1.92600000       0.71760000
C        0.79870000      -0.53060000       1.22980000
N        2.12680000       0.08870000       1.31400000
C        2.88580000      -0.31140000       0.22850000
O        3.96440000       0.12350000      -0.10370000
H        0.78290000       2.08340000       0.03980000
H       -0.70480000       1.88340000      -0.88690000
H       -0.76560000       1.87630000       0.87950000
H       -0.96140000      -0.43930000      -0.01790000
H        0.30780000      -1.12440000      -1.85820000
H        1.33030000       0.31070000      -1.77840000
H        2.54910000      -2.02670000      -1.11990000
H        0.35240000      -2.53850000       0.41750000
H        1.82460000      -2.47380000       1.43260000
H        0.26650000      -0.48370000       2.18090000
H        2.29860000       0.98200000       1.74920000
