23
Properties=species:S:1:pos:R:3 gdb_60489=T pbc="F F F"
C       -0.11120000       1.55050000       0.06430000
C        0.00500000       0.02010000       0.06730000
C        0.87810000      -0.45170000       1.24000000
C       -1.39500000      -0.61790000       0.07670000
C       -1.40310000      -2.12970000      -0.10830000
O       -2.75000000      -2.55610000      -0.21650000
C       -2.89020000      -3.94170000      -0.37350000
C       -4.37130000      -4.26100000      -0.47990000
O       -4.80620000      -5.37230000      -0.62350000
H        0.87560000       2.02200000       0.01530000
H       -0.69690000       1.90500000      -0.79030000
H       -0.60450000       1.90710000       0.97640000
H        0.50340000      -0.27920000      -0.86660000
H        1.05660000      -1.53110000       1.21850000
H        1.85530000       0.04170000       1.22090000
H        0.40470000      -0.21080000       2.19970000
H       -1.90880000      -0.37310000       1.01540000
H       -1.99810000      -0.18400000      -0.72980000
H       -0.84490000      -2.41000000      -1.01850000
H       -0.91870000      -2.64180000       0.73810000
H       -2.38330000      -4.31250000      -1.28140000
H       -2.46780000      -4.50330000       0.47790000
H       -5.02430000      -3.36300000      -0.41240000
