21
Properties=species:S:1:pos:R:3 gdb_74416=T pbc="F F F"
C        0.03660000       1.51690000       0.05290000
C       -0.02970000       0.02430000      -0.01900000
C       -0.07350000      -0.73860000      -1.11600000
C       -0.05400000      -2.19610000      -0.78770000
O       -0.83910000      -3.08320000      -1.52830000
C        1.19720000      -2.69030000      -0.08930000
C       -0.01620000      -2.27660000       0.72840000
C       -0.77740000      -3.33490000       1.48800000
C       -0.02990000      -0.83300000       1.23720000
H        0.96710000       1.85510000       0.52720000
H       -0.01900000       1.97100000      -0.94020000
H       -0.78410000       1.92060000       0.66000000
H       -0.08860000      -0.37380000      -2.13780000
H       -0.30380000      -3.42400000      -2.25200000
H        1.38650000      -3.75950000      -0.13130000
H        2.08460000      -2.06470000      -0.10310000
H       -0.85160000      -4.25480000       0.90180000
H       -0.28990000      -3.57360000       2.44040000
H       -1.79770000      -3.00180000       1.70950000
H        0.83510000      -0.61230000       1.87760000
H       -0.92080000      -0.63120000       1.84950000
