20
Properties=species:S:1:pos:R:3 gdb_11993=T pbc="F F F"
C       -0.10480000       1.56440000      -0.12710000
C        0.01720000       0.05200000      -0.00250000
C        1.04130000      -0.64630000      -0.90940000
O        2.34440000      -0.17950000      -0.52810000
C        1.74830000      -1.23380000       0.23550000
C        0.77200000      -0.59780000       1.24910000
C        1.41190000       0.35460000       2.25400000
C       -0.09200000      -1.65350000       1.93800000
H        0.88040000       2.03700000      -0.13270000
H       -0.61410000       1.83490000      -1.05890000
H       -0.68450000       1.98800000       0.69970000
H       -0.96680000      -0.41820000      -0.10520000
H        0.92780000      -1.00070000      -1.92820000
H        2.30820000      -2.15940000       0.32480000
H        2.10610000       1.03790000       1.76020000
H        0.65380000       0.94980000       2.77530000
H        1.96990000      -0.20490000       3.01380000
H        0.49170000      -2.22420000       2.66990000
H       -0.92760000      -1.18640000       2.47090000
H       -0.50970000      -2.36460000       1.21670000
