16
Properties=species:S:1:pos:R:3 gdb_128505=T pbc="F F F"
C       -0.19640000       1.34980000       0.17860000
O       -0.03700000      -0.06960000       0.05790000
C        0.67340000      -0.68350000       0.99540000
C        0.95660000      -2.01450000       1.13740000
C        0.51530000      -3.15540000       0.28860000
O       -0.33560000      -4.00100000       1.06070000
C        1.74490000      -2.01970000       2.31800000
N        1.93080000      -0.83170000       2.83680000
O        1.23230000       0.04420000       1.96610000
H        0.77270000       1.85490000       0.13760000
H       -0.81150000       1.64630000      -0.67060000
H       -0.69810000       1.60580000       1.11590000
H       -0.00390000      -2.76000000      -0.59680000
H        1.39030000      -3.71950000      -0.07160000
H       -0.54640000      -4.77210000       0.52410000
H        2.18370000      -2.87410000       2.81590000
