18
Properties=species:S:1:pos:R:3 gdb_67669=T pbc="F F F"
C        0.01900000       1.55940000       0.00990000
C       -0.04440000       0.06400000       0.00000000
C        0.08830000      -1.00270000       1.09080000
C       -0.75020000      -2.02280000       0.27060000
C        0.29220000      -2.89950000      -0.43550000
C        1.43040000      -1.88270000      -0.69380000
N        1.19380000      -0.72730000       0.21030000
C       -1.12230000      -0.79820000      -0.60450000
O       -2.05900000      -0.54830000      -1.31340000
H        0.72840000       1.90710000       0.76480000
H        0.34750000       1.93800000      -0.96370000
H       -0.96690000       1.98510000       0.21910000
H        0.14480000      -0.86630000       2.16380000
H       -1.59300000      -2.53960000       0.72830000
H        0.61860000      -3.71830000       0.21450000
H       -0.09500000      -3.33720000      -1.35940000
H        2.41540000      -2.29480000      -0.45840000
H        1.45320000      -1.53150000      -1.72940000
