19
Properties=species:S:1:pos:R:3 gdb_66056=T pbc="F F F"
C       -0.16820000       1.71790000       0.19690000
C       -0.11960000       0.19730000       0.06790000
C        0.94000000      -0.34620000      -0.92510000
C        1.88930000      -0.66010000       0.25680000
C        0.68630000      -0.52760000       1.24430000
C        0.87580000       0.16200000       2.50000000
C        1.04180000       0.75180000       3.53570000
C       -1.51220000      -0.37000000      -0.06780000
O       -1.84230000      -1.21870000      -0.85740000
H        0.82630000       2.12810000       0.39170000
H       -0.54670000       2.16730000      -0.72750000
H       -0.81710000       2.02620000       1.02290000
H        0.57150000      -1.24080000      -1.43120000
H        1.30090000       0.36230000      -1.67330000
H        2.39810000      -1.62560000       0.25660000
H        2.62770000       0.12590000       0.42720000
H        0.24620000      -1.51420000       1.42460000
H        1.18950000       1.26180000       4.45530000
H       -2.24420000       0.04270000       0.66580000
