19
Properties=species:S:1:pos:R:3 gdb_84678=T pbc="F F F"
O        0.50930000       1.00340000      -0.78140000
C        0.13020000      -0.21120000      -0.14330000
C        0.67300000      -0.33920000       1.25940000
C       -0.26730000      -0.63220000       2.15420000
C       -1.64160000      -0.78020000       1.55070000
C       -2.69930000       0.21660000       2.11460000
C       -2.87250000       1.21530000       0.99830000
C       -2.20660000       0.88030000      -0.10580000
C       -1.41780000      -0.39710000       0.04740000
H        0.20280000       1.72250000      -0.21650000
H        0.53600000      -0.98970000      -0.79950000
H        1.72680000      -0.18870000       1.46810000
H       -0.09730000      -0.76350000       3.21880000
H       -1.99660000      -1.81050000       1.66130000
H       -3.64910000      -0.28290000       2.34640000
H       -2.36710000       0.68850000       3.04840000
H       -3.50200000       2.09340000       1.10150000
H       -2.20940000       1.44140000      -1.03300000
H       -1.78520000      -1.16590000      -0.64120000
