18
Properties=species:S:1:pos:R:3 gdb_52216=T pbc="F F F"
N       -0.09350000       1.27280000      -0.55230000
C       -0.09350000       0.11410000      -0.05430000
O       -1.07210000      -0.75650000      -0.37380000
C       -0.93130000      -2.09110000       0.11710000
C       -2.30260000      -2.71430000       0.11850000
C       -2.84480000      -3.40920000      -1.08210000
C       -2.50760000      -4.23070000       0.15670000
C       -1.36710000      -5.17470000       0.09860000
O       -1.30200000      -6.19900000       0.73170000
H        0.69440000       1.80640000      -0.19110000
H        0.64060000      -0.29210000       0.65630000
H       -0.23750000      -2.64460000      -0.52740000
H       -0.51160000      -2.07640000       1.13230000
H       -3.01600000      -2.16130000       0.72220000
H       -3.89180000      -3.29530000      -1.33570000
H       -2.18420000      -3.52360000      -1.93650000
H       -3.32710000      -4.58520000       0.77210000
H       -0.55200000      -4.88550000      -0.60480000
