19
Properties=species:S:1:pos:R:3 gdb_86643=T pbc="F F F"
C       -0.76090000       1.25450000      -0.05920000
C        0.21400000       0.08210000      -0.00380000
C        1.29200000       0.11380000      -1.10420000
N        2.39450000      -0.67270000      -0.54740000
C        3.40720000      -1.14540000      -1.37590000
N        4.43830000      -1.76370000      -0.97190000
C        2.31710000      -0.77750000       0.85440000
O        3.09580000      -1.34180000       1.57450000
C        1.05620000      -0.02080000       1.27490000
H       -0.23610000       2.20890000       0.06140000
H       -1.29600000       1.28400000      -1.01450000
H       -1.50750000       1.18080000       0.73730000
H       -0.34540000      -0.85480000      -0.11740000
H        0.94330000      -0.31850000      -2.04710000
H        1.61240000       1.14660000      -1.30630000
H        3.18470000      -0.91240000      -2.42600000
H        5.01800000      -2.01300000      -1.77220000
H        1.36210000       0.97270000       1.62960000
H        0.56770000      -0.52990000       2.10720000
