16
Properties=species:S:1:pos:R:3 gdb_127310=T pbc="F F F"
C       -0.42520000       1.42820000      -0.19180000
N       -0.12550000       0.01740000      -0.06650000
C        0.36770000      -0.81950000      -1.01170000
C        0.52510000      -2.05310000      -0.41610000
C        0.09520000      -1.85380000       0.91210000
C       -0.00050000      -2.84760000       2.03960000
C        1.20070000      -3.67230000       2.18320000
N        2.14300000      -4.33280000       2.28520000
N       -0.29440000      -0.59690000       1.11930000
H        0.26680000       2.02340000       0.41080000
H       -0.33100000       1.71720000      -1.23960000
H       -1.44540000       1.62220000       0.14710000
H        0.56780000      -0.47780000      -2.01500000
H        0.90080000      -2.95700000      -0.86670000
H       -0.17870000      -2.30410000       2.97240000
H       -0.85540000      -3.52090000       1.89620000
