16
Properties=species:S:1:pos:R:3 gdb_44625=T pbc="F F F"
O        0.01630000       0.03360000      -0.12450000
C        0.02410000       1.23090000       0.01420000
N       -1.06620000       2.08990000       0.14320000
C       -0.46990000       3.42200000       0.08520000
C        0.72150000       3.34670000      -0.94070000
C        1.58860000       4.53540000      -0.55430000
O        1.54050000       4.44410000       0.88810000
C        0.71750000       3.31560000       1.08730000
C        1.18670000       2.21520000       0.06470000
H       -1.94210000       1.87030000      -0.30710000
H       -1.17610000       4.25030000       0.11340000
H        0.55940000       3.13610000      -1.99790000
H        2.62570000       4.46000000      -0.90000000
H        1.17400000       5.49680000      -0.88020000
H        0.57310000       3.11270000       2.14710000
H        2.19450000       1.80760000       0.06640000
