18
Properties=species:S:1:pos:R:3 gdb_40325=T pbc="F F F"
C       -0.08360000       1.45750000       0.00370000
C        1.27880000       0.81840000       0.09380000
C        0.04120000      -0.04750000       0.05240000
C       -0.37850000      -0.77130000       1.26490000
N       -0.20790000      -0.20810000       2.68290000
C       -0.08340000      -1.62490000       3.18190000
C       -1.42630000      -0.99490000       3.09320000
C       -1.61840000      -1.54170000       1.65880000
C       -0.22610000      -2.19500000       1.75080000
H       -0.45830000       1.94960000       0.89430000
H       -0.38500000       1.91470000      -0.93210000
H        1.92110000       0.83290000      -0.77960000
H        1.79700000       0.89160000       1.04330000
H       -0.15090000      -0.58720000      -0.87130000
H        0.53970000      -1.88230000       4.03020000
H       -2.10970000      -0.63930000       3.85520000
H       -2.47950000      -1.84730000       1.08180000
H        0.14740000      -3.07980000       1.25530000
