15
Properties=species:S:1:pos:R:3 gdb_29032=T pbc="F F F"
C       -0.41750000       1.51040000       0.05340000
C       -0.11780000       0.04190000      -0.02170000
C        0.00260000      -0.61990000      -1.20030000
N        0.40340000      -1.91520000      -1.44180000
C        0.27510000      -2.89840000      -0.61830000
C       -0.38310000      -2.85380000       0.68300000
N       -0.45230000      -1.85260000       1.47770000
C        0.21570000      -0.64040000       1.25760000
O        0.91810000      -0.14330000       2.10730000
H        0.39740000       2.03000000       0.56650000
H       -0.55470000       1.94340000      -0.94000000
H       -1.32570000       1.69020000       0.64050000
H       -0.13460000      -0.05080000      -2.11810000
H        0.60250000      -3.87850000      -0.97000000
H       -0.89930000      -3.76870000       0.98840000
