16
Properties=species:S:1:pos:R:3 gdb_52352=T pbc="F F F"
O        0.46920000       0.98120000      -1.49250000
C        0.22360000       1.58490000      -0.46940000
N        1.08220000       1.70370000       0.57830000
C        2.40530000       1.10470000       0.56030000
C        3.41060000       1.91720000      -0.29310000
C        4.74440000       1.34300000      -0.26410000
C        5.84710000       0.84630000      -0.21440000
C        7.08790000       0.29000000      -0.16330000
C        8.18920000      -0.20320000      -0.11650000
H       -0.73920000       2.10010000      -0.28160000
H        0.80400000       2.26280000       1.36810000
H        2.76440000       1.02410000       1.58880000
H        2.32400000       0.09670000       0.14640000
H        3.03240000       1.94850000      -1.32120000
H        3.44110000       2.95270000       0.06950000
H        9.15700000      -0.63770000      -0.07840000
