17
Properties=species:S:1:pos:R:3 gdb_43982=T pbc="F F F"
O       -0.03970000       0.07170000      -0.29850000
C       -0.01960000       1.23060000       0.00840000
C       -1.14750000       2.28360000       0.19780000
C       -0.05570000       3.35420000      -0.00410000
C        0.95490000       3.28600000       1.07800000
C        1.06960000       2.26370000      -0.04020000
C        1.96600000       2.61260000      -1.20570000
O        1.61230000       3.96840000      -1.53480000
C        0.23310000       4.20300000      -1.22020000
H       -1.86880000       2.20830000      -0.62100000
H       -1.68720000       2.31320000       1.14760000
H        1.74140000       4.03340000       1.06270000
H        0.65500000       2.96040000       2.06840000
H        3.03870000       2.61680000      -0.99410000
H        1.77460000       1.92700000      -2.04380000
H       -0.42890000       3.90310000      -2.04850000
H        0.13280000       5.28240000      -1.07140000
