18
Properties=species:S:1:pos:R:3 gdb_126429=T pbc="F F F"
C        0.06960000       1.47740000      -0.08640000
C       -0.03310000      -0.04710000       0.09300000
C       -1.43950000      -0.55720000       0.01000000
N       -2.10460000      -0.89120000       1.11170000
N       -3.33840000      -1.28310000       0.67100000
C       -3.44510000      -1.20450000      -0.66780000
O       -4.56380000      -1.54880000      -1.32590000
C       -2.24110000      -0.73470000      -1.15250000
N       -2.02460000      -0.54640000      -2.54880000
H        1.10960000       1.81120000      -0.01440000
H       -0.31470000       1.79150000      -1.06280000
H       -0.51110000       1.99600000       0.68200000
H        0.58170000      -0.54230000      -0.66980000
H        0.37540000      -0.33270000       1.06690000
H       -4.03010000      -1.59840000       1.32800000
H       -4.35700000      -1.40180000      -2.26200000
H       -1.24730000      -1.10100000      -2.89420000
H       -1.82470000       0.42160000      -2.78070000
