20
Properties=species:S:1:pos:R:3 gdb_100573=T pbc="F F F"
C       -0.07160000       1.60290000      -0.04260000
C       -0.03190000       0.07200000      -0.02810000
N       -1.36010000      -0.54490000       0.01420000
C       -2.06960000      -0.67040000      -1.24700000
C       -1.91830000      -0.75400000       1.25060000
O       -1.32150000      -0.50640000       2.28070000
C       -3.34600000      -1.34240000       1.26440000
C       -3.87160000      -1.52550000       2.60740000
C       -4.34420000      -1.69310000       3.69790000
H        0.94450000       2.00690000      -0.09050000
H       -0.62500000       1.98730000      -0.90580000
H       -0.54500000       1.97510000       0.86960000
H        0.48070000      -0.30760000      -0.91910000
H        0.51020000      -0.27340000       0.85300000
H       -2.85990000      -1.41820000      -1.18700000
H       -2.51850000       0.27690000      -1.57800000
H       -1.36950000      -0.99680000      -2.02260000
H       -4.01400000      -0.68740000       0.69050000
H       -3.34300000      -2.30390000       0.73420000
H       -4.74300000      -1.83290000       4.67170000
