18
Properties=species:S:1:pos:R:3 gdb_85687=T pbc="F F F"
C       -1.01870000       1.09680000      -0.06280000
C       -0.04490000      -0.07020000      -0.05610000
C        1.29930000       0.05620000      -0.83720000
C        2.03490000      -0.66840000       0.34000000
C        3.32080000      -0.15790000       0.77720000
N        4.33000000       0.27570000       1.13970000
C        0.78720000      -0.35970000       1.19940000
C        0.74760000       0.26120000       2.52220000
O        0.38030000      -1.11610000       2.30890000
H       -0.52190000       2.02890000       0.22650000
H       -1.44890000       1.24050000      -1.05920000
H       -1.84650000       0.92250000       0.63270000
H       -0.55750000      -0.99380000      -0.35070000
H        1.36570000      -0.42770000      -1.81170000
H        1.62310000       1.09540000      -0.92630000
H        2.10670000      -1.74540000       0.16020000
H        1.67510000       0.41580000       3.07020000
H       -0.07480000       0.92330000       2.78600000
