19
Properties=species:S:1:pos:R:3 gdb_2369=T pbc="F F F"
C       -0.24060000       1.51560000       0.07630000
C        0.00500000       0.01410000      -0.09130000
O        0.64810000      -0.26500000      -1.33710000
C        0.77480000      -0.56430000       1.07870000
C        0.05900000      -1.14820000       2.27660000
C        0.83890000      -2.04930000       1.35010000
C        0.14680000      -3.06910000       0.47110000
H        0.71090000       2.05580000       0.15850000
H       -0.78300000       1.91090000      -0.78680000
H       -0.81910000       1.72130000       0.98250000
H       -0.96350000      -0.49110000      -0.17340000
H        1.53630000       0.10600000      -1.29430000
H        1.68600000      -0.00930000       1.30210000
H        0.44290000      -0.94120000       3.26970000
H       -1.02480000      -1.20440000       2.22580000
H        1.79570000      -2.39060000       1.73840000
H       -0.85310000      -2.74090000       0.17380000
H        0.71570000      -3.25390000      -0.44550000
H        0.03320000      -4.02100000       1.00140000
