21
Properties=species:S:1:pos:R:3 gdb_2723=T pbc="F F F"
C       -0.01560000       1.55480000       0.00280000
C        0.01280000       0.02410000      -0.01820000
C        0.71700000      -0.54210000      -1.25520000
C        0.74540000      -2.06410000      -1.27630000
O        1.40980000      -2.49210000      -2.44500000
C        1.48860000      -3.89640000      -2.56150000
C        2.22030000      -4.23770000      -3.84870000
H        0.99880000       1.96880000      -0.00530000
H       -0.54010000       1.95220000      -0.87310000
H       -0.52310000       1.93310000       0.89560000
H        0.51270000      -0.34460000       0.88740000
H       -1.01470000      -0.36110000       0.02550000
H        0.21840000      -0.18900000      -2.16640000
H        1.74870000      -0.17230000      -1.30280000
H        1.26050000      -2.45070000      -0.37870000
H       -0.28280000      -2.46740000      -1.25000000
H        2.01790000      -4.32260000      -1.69150000
H        0.47620000      -4.33660000      -2.56420000
H        2.29730000      -5.32250000      -3.96860000
H        1.68780000      -3.82920000      -4.71230000
H        3.22970000      -3.81640000      -3.83940000
