20
Properties=species:S:1:pos:R:3 gdb_99625=T pbc="F F F"
C       -1.65060000       0.52710000       1.89060000
C       -0.85360000      -0.45500000       1.06060000
C        0.02810000      -0.00160000      -0.04780000
N        0.61290000      -0.60210000       1.15360000
C        1.37020000       0.26110000       2.06550000
C        1.79880000      -0.55420000       3.30340000
N        0.61090000      -1.04730000       3.99780000
C        2.56000000       0.78270000       1.37680000
N        3.49810000       1.20330000       0.84980000
H       -1.26830000       1.54880000       1.81590000
H       -2.68580000       0.54220000       1.53470000
H       -1.64860000       0.23660000       2.94570000
H       -1.33840000      -1.42380000       0.94800000
H        0.14410000      -0.57960000      -0.96020000
H        0.13330000       1.07430000      -0.17950000
H        0.79200000       1.12750000       2.41730000
H        2.48970000      -1.34190000       2.96850000
H        2.35070000       0.10850000       3.97760000
H        0.22370000      -1.83050000       3.48040000
H        0.87130000      -1.40540000       4.91070000
