20
Properties=species:S:1:pos:R:3 gdb_87686=T pbc="F F F"
C        0.08700000       1.44750000      -0.41120000
C        0.20980000      -0.04850000      -0.24390000
C        1.55610000      -0.70280000      -0.09160000
C        0.63220000      -0.61220000       1.09800000
N        0.81950000       0.15980000       2.34160000
C        0.24530000      -0.96160000       3.16670000
C       -0.95300000      -0.58640000       4.02430000
C       -0.03250000      -1.72250000       1.85040000
O       -0.57880000      -2.74790000       1.55760000
H        0.80480000       1.97300000       0.22510000
H        0.26480000       1.74340000      -1.45050000
H       -0.91240000       1.79140000      -0.12660000
H       -0.54500000      -0.64470000      -0.75120000
H        1.72550000      -1.68460000      -0.52180000
H        2.42880000      -0.05560000      -0.07120000
H        1.80010000       0.31540000       2.55280000
H        1.00200000      -1.48530000       3.76660000
H       -1.70140000      -0.05660000       3.42850000
H       -1.41260000      -1.48720000       4.44330000
H       -0.65110000       0.06570000       4.84940000
