17
Properties=species:S:1:pos:R:3 gdb_27282=T pbc="F F F"
C        0.02530000       1.51100000       0.06450000
C        0.02410000       0.02130000      -0.02700000
C        0.13860000      -0.79370000      -1.11750000
O        0.34470000      -0.71110000      -2.46080000
C        0.10280000      -2.03510000      -2.97770000
C        0.30450000      -3.01200000      -1.78460000
N        0.06750000      -2.09180000      -0.68910000
C       -0.06690000      -2.04290000       0.67430000
N       -0.10690000      -0.79940000       1.09000000
H        0.86330000       1.87360000       0.67030000
H        0.10670000       1.95950000      -0.92950000
H       -0.89420000       1.88030000       0.53170000
H       -0.92830000      -2.08990000      -3.34690000
H        0.79300000      -2.21160000      -3.80390000
H       -0.41110000      -3.83720000      -1.80640000
H        1.32000000      -3.42330000      -1.74810000
H       -0.15330000      -2.92600000       1.28810000
