20
Properties=species:S:1:pos:R:3 gdb_22283=T pbc="F F F"
C        0.13180000       1.43890000      -0.19120000
C       -0.02290000      -0.06940000       0.00530000
O        0.74960000      -0.53400000       1.10980000
C       -1.48070000      -0.49730000       0.14220000
C       -2.36970000      -0.43150000      -1.14860000
C       -2.73320000      -1.87960000      -0.89470000
C       -1.74580000      -2.03380000       0.24290000
N       -3.62590000      -2.59580000      -1.43510000
O       -3.65640000      -3.88040000      -0.85650000
H        1.18840000       1.70280000      -0.28650000
H       -0.39450000       1.78200000      -1.08770000
H       -0.28160000       1.98490000       0.66640000
H        0.40890000      -0.58950000      -0.86050000
H        0.43930000      -0.07440000       1.89810000
H       -1.94360000       0.04760000       0.97330000
H       -3.19590000       0.28350000      -1.14970000
H       -1.78600000      -0.28460000      -2.06500000
H       -0.87180000      -2.64350000      -0.00870000
H       -2.16190000      -2.41270000       1.17960000
H       -4.37190000      -4.30310000      -1.34320000
