23
Properties=species:S:1:pos:R:3 gdb_115953=T pbc="F F F"
C       -0.24140000       1.31340000       0.11240000
O        0.23600000       0.00180000      -0.07050000
C        0.72210000      -0.60920000       1.10730000
C       -0.35510000      -0.98660000       2.15020000
C        0.33050000      -2.07750000       2.99160000
C        1.15180000      -2.89060000       1.97610000
C        0.33710000      -3.83070000       1.03750000
C        0.62500000      -2.89180000      -0.16810000
C        1.42180000      -1.93380000       0.76310000
H        0.52670000       1.96810000       0.55500000
H       -0.50710000       1.70230000      -0.87400000
H       -1.13340000       1.35010000       0.75500000
H        1.45320000       0.06550000       1.58750000
H       -0.69500000      -0.13800000       2.74990000
H       -1.22940000      -1.38830000       1.62350000
H        1.00060000      -1.61310000       3.72550000
H       -0.38020000      -2.69430000       3.55160000
H        2.02510000      -3.36320000       2.43040000
H        0.74980000      -4.83780000       0.94010000
H       -0.71970000      -3.92710000       1.30650000
H        1.23460000      -3.34600000      -0.95240000
H       -0.24800000      -2.43670000      -0.63940000
H        2.46110000      -1.77490000       0.47030000
