22
Properties=species:S:1:pos:R:3 gdb_14799=T pbc="F F F"
C       -0.03960000       1.38190000      -0.03010000
O       -0.00550000      -0.02310000      -0.01520000
C        0.66520000      -0.54540000       1.11120000
C        0.64610000      -2.06550000       1.03180000
C        1.35370000      -2.73050000       2.21670000
C        1.33550000      -4.25990000       2.13870000
C        2.03810000      -4.92350000       3.31520000
O        1.95920000      -6.33010000       3.13760000
H        0.97270000       1.81750000      -0.05280000
H       -0.57450000       1.68870000      -0.93240000
H       -0.56450000       1.78980000       0.84920000
H        1.70550000      -0.17460000       1.14370000
H        0.17680000      -0.20230000       2.04100000
H       -0.39710000      -2.39970000       0.98030000
H        1.11850000      -2.37220000       0.09080000
H        2.39380000      -2.37900000       2.26560000
H        0.88010000      -2.40640000       3.15400000
H        0.30130000      -4.62350000       2.10150000
H        1.81670000      -4.59600000       1.21200000
H        3.08700000      -4.58570000       3.36050000
H        1.55760000      -4.61330000       4.25820000
H        2.40280000      -6.75210000       3.87890000
