16
Properties=species:S:1:pos:R:3 gdb_128308=T pbc="F F F"
C       -0.05530000       1.45770000       0.02230000
N       -0.03790000       0.00910000       0.13860000
C       -1.23200000      -0.68390000       0.06390000
N       -2.36650000      -0.04960000       0.09110000
N       -3.46990000      -0.82700000       0.10140000
C       -3.52090000      -2.21310000       0.02250000
N       -4.65490000      -2.80000000      -0.01090000
N       -2.27120000      -2.86050000      -0.00840000
C       -1.21160000      -2.13430000       0.01720000
H        0.96930000       1.82760000       0.09410000
H       -0.50380000       1.80590000      -0.91890000
H       -0.64170000       1.88150000       0.84150000
H        0.73020000      -0.44600000      -0.33190000
H       -4.34660000      -0.32980000       0.12510000
H       -4.50110000      -3.80500000      -0.05510000
H       -0.24570000      -2.64480000       0.00370000
