17
Properties=species:S:1:pos:R:3 gdb_93616=T pbc="F F F"
C       -0.02050000       1.37400000      -0.03820000
N        0.02080000      -0.07120000      -0.01870000
C       -1.10960000      -0.88920000      -0.42280000
C       -0.70110000      -2.30770000       0.01990000
C        0.84430000      -2.27010000      -0.00380000
C        1.39910000      -2.71520000      -1.28020000
N        1.80760000      -3.06760000      -2.30260000
C        1.17230000      -0.76370000       0.21590000
O        2.24770000      -0.30860000       0.52800000
H        0.95820000       1.73880000       0.27690000
H       -0.23810000       1.74860000      -1.04610000
H       -0.78880000       1.75180000       0.64600000
H       -2.02760000      -0.55270000       0.07080000
H       -1.27380000      -0.82860000      -1.50830000
H       -1.03170000      -2.48690000       1.04590000
H       -1.12190000      -3.08470000      -0.61820000
H        1.30250000      -2.85300000       0.79830000
