21
Properties=species:S:1:pos:R:3 gdb_68288=T pbc="F F F"
C       -0.16290000       1.45530000      -0.04890000
C       -0.00000000      -0.03920000      -0.00540000
C        0.67150000      -0.96430000      -1.07570000
C        0.17720000      -1.93610000       0.03610000
C        0.72070000      -0.91030000       1.07180000
C       -1.12620000      -1.10800000       0.05180000
C       -2.25950000      -1.19260000       1.09050000
C       -3.17590000      -1.31990000      -0.14020000
O       -2.05560000      -1.20780000      -1.04180000
H        0.80540000       1.95990000      -0.13470000
H       -0.77430000       1.74940000      -0.90890000
H       -0.65340000       1.82880000       0.85750000
H        0.17470000      -1.03220000      -2.04420000
H        1.75590000      -0.86420000      -1.17880000
H        0.27470000      -3.02180000       0.06340000
H        1.80810000      -0.80930000       1.11240000
H        0.28630000      -0.92720000       2.07580000
H       -2.22950000      -2.06180000       1.75030000
H       -2.40770000      -0.29230000       1.69080000
H       -3.69090000      -2.28160000      -0.25050000
H       -3.89910000      -0.50930000      -0.28680000
