25
Properties=species:S:1:pos:R:3 gdb_60393=T pbc="F F F"
C       -0.78810000       1.10390000       0.13120000
C        0.08890000      -0.14750000       0.00170000
C        1.10110000      -0.01070000      -1.14230000
C        0.81520000      -0.45880000       1.30940000
O       -0.13990000      -0.69980000       2.33020000
C        0.43180000      -1.01770000       3.55850000
C        0.91360000       0.09260000       4.46450000
C       -0.35010000      -0.68270000       4.79340000
C       -1.70440000      -0.01590000       4.70160000
H       -0.17510000       1.98950000       0.34010000
H       -1.33940000       1.29340000      -0.79570000
H       -1.51000000       0.99310000       0.94350000
H       -0.56410000      -1.00460000      -0.21080000
H        1.78780000       0.82540000      -0.96350000
H        1.70290000      -0.91810000      -1.26070000
H        0.59160000       0.17960000      -2.09200000
H        1.45920000      -1.34500000       1.18330000
H        1.47050000       0.38150000       1.59400000
H        1.00470000      -1.94700000       3.55030000
H        1.80580000      -0.05900000       5.06250000
H        0.77890000       1.10520000       4.09750000
H       -0.25870000      -1.40680000       5.59910000
H       -1.74890000       0.66300000       3.84710000
H       -2.50140000      -0.75700000       4.57690000
H       -1.91880000       0.55880000       5.60910000
