14
Properties=species:S:1:pos:R:3 gdb_24992=T pbc="F F F"
O        0.06140000       0.03580000       0.21430000
C       -0.04360000       1.22270000       0.12870000
N       -1.16960000       2.02180000       0.04050000
C       -0.76520000       3.34720000      -0.24740000
C        0.56280000       3.31890000      -0.14700000
O        1.22810000       4.47290000      -0.01630000
C        0.16490000       5.46600000      -0.22540000
C       -1.21510000       4.75620000       0.00400000
O        1.08030000       2.09430000       0.06690000
H       -2.03210000       1.58760000      -0.24590000
H        0.36120000       6.29130000       0.45820000
H        0.24650000       5.81340000      -1.25920000
H       -1.96280000       5.15710000      -0.68730000
H       -1.59260000       4.90140000       1.02630000
