20
Properties=species:S:1:pos:R:3 gdb_15006=T pbc="F F F"
C       -0.15340000       1.36920000       0.01910000
O        0.14570000      -0.00450000      -0.06450000
C        0.73630000      -0.55650000       1.09950000
C       -0.25510000      -0.73250000       2.26010000
C        0.40380000      -1.51640000       3.40070000
O        0.89670000      -2.76990000       2.96600000
C        1.87500000      -2.63050000       1.95060000
C        1.31830000      -1.91620000       0.71540000
H        0.73550000       1.96360000       0.28490000
H       -0.50150000       1.68260000      -0.96840000
H       -0.94440000       1.58960000       0.75070000
H        1.55780000       0.10290000       1.43600000
H       -0.60350000       0.23480000       2.63870000
H       -1.12870000      -1.28360000       1.89320000
H        1.22340000      -0.91990000       3.84010000
H       -0.31570000      -1.72780000       4.19670000
H        2.74830000      -2.07940000       2.34290000
H        2.20600000      -3.64240000       1.70090000
H        0.52230000      -2.52280000       0.26910000
H        2.10220000      -1.79030000      -0.03890000
