19
Properties=species:S:1:pos:R:3 gdb_68673=T pbc="F F F"
C       -0.00560000       1.57570000       0.04890000
C        0.02180000       0.06460000      -0.05620000
C        0.71010000      -0.68990000      -1.24550000
C       -0.36170000      -1.80850000      -1.04970000
C        0.08110000      -2.69620000       0.14260000
O        0.91160000      -1.96530000       1.02850000
C        0.50550000      -0.62730000       1.25460000
C       -1.24150000      -0.69810000      -0.47320000
O       -2.41580000      -0.45940000      -0.44890000
H        0.99800000       1.98170000       0.21550000
H       -0.40970000       2.02340000      -0.86360000
H       -0.64230000       1.89490000       0.88100000
H        0.58650000      -0.15930000      -2.19170000
H        1.75110000      -0.98140000      -1.09960000
H       -0.72540000      -2.40150000      -1.89010000
H       -0.80420000      -3.09900000       0.65940000
H        0.68460000      -3.53950000      -0.20760000
H        1.38730000      -0.10800000       1.64580000
H       -0.28960000      -0.57020000       2.01520000
