21
Properties=species:S:1:pos:R:3 gdb_70300=T pbc="F F F"
C       -0.44100000       1.47410000       0.25660000
C        0.02050000       0.06390000      -0.01070000
C       -0.72030000      -1.10860000       0.52740000
N        0.56740000      -0.71550000       1.13160000
C        1.70780000      -1.49250000       0.62170000
C        1.62480000      -1.47960000      -0.90660000
C        2.63650000      -2.11810000      -1.77380000
N        1.28210000      -2.69810000      -1.66650000
C        0.86470000      -0.20580000      -1.25380000
H        0.40630000       2.16930000       0.26700000
H       -1.13940000       1.80860000      -0.51890000
H       -0.94530000       1.54040000       1.22410000
H       -1.58090000      -0.94990000       1.17150000
H       -0.76550000      -2.01280000      -0.07470000
H        2.62460000      -0.99650000       0.96370000
H        1.70650000      -2.50790000       1.03600000
H        2.87470000      -1.68930000      -2.74390000
H        3.46590000      -2.63710000      -1.29810000
H        1.31190000      -3.50900000      -1.05160000
H        0.27310000      -0.33190000      -2.16420000
H        1.55790000       0.63040000      -1.41210000
