19
Properties=species:S:1:pos:R:3 gdb_7506=T pbc="F F F"
C        0.12380000       1.49860000       0.06710000
C        0.07890000       0.04350000       0.06750000
C        0.04210000      -1.16150000       0.08260000
C        0.03920000      -2.60500000       0.03510000
C        1.14210000      -3.21960000      -0.80950000
C       -0.48380000      -3.34580000       1.23480000
N       -1.24400000      -3.33830000      -0.00420000
C       -2.48960000      -2.58380000      -0.01420000
H        1.14980000       1.86090000      -0.06200000
H       -0.47870000       1.91820000      -0.74630000
H       -0.25590000       1.91090000       1.00850000
H        2.12690000      -2.94010000      -0.42240000
H        1.05140000      -4.30840000      -0.80430000
H        1.07230000      -2.87190000      -1.84480000
H       -0.03420000      -4.29540000       1.51690000
H       -0.84700000      -2.74250000       2.06520000
H       -2.45800000      -1.66300000       0.58640000
H       -2.73730000      -2.31100000      -1.04470000
H       -3.28670000      -3.22770000       0.37070000
