17
Properties=species:S:1:pos:R:3 gdb_74763=T pbc="F F F"
C        0.07750000       1.43040000       0.07230000
C        0.01820000      -0.05450000       0.00570000
C        0.01100000      -0.91930000      -1.01720000
C       -0.01540000      -2.27360000      -0.30100000
O       -0.97970000      -2.02470000       0.77760000
C       -0.01020000      -1.01790000       1.21060000
C        1.07050000      -2.04620000       0.78510000
C        1.94020000      -2.93910000       1.53070000
O        2.44780000      -1.89390000       0.65570000
H        0.97260000       1.76520000       0.61140000
H        0.10020000       1.87350000      -0.92690000
H       -0.78630000       1.84090000       0.61000000
H        0.04860000      -0.74270000      -2.08190000
H       -0.16660000      -3.20110000      -0.85000000
H       -0.15340000      -0.64160000       2.22280000
H        2.11540000      -2.77550000       2.59250000
H        2.11240000      -3.95500000       1.18010000
