21
Properties=species:S:1:pos:R:3 gdb_78462=T pbc="F F F"
C        0.05630000       1.59190000       0.05150000
C        0.00130000       0.07900000       0.01160000
C        1.27030000      -0.68710000      -0.26940000
C        0.66210000      -0.70170000       1.12060000
C        0.35030000      -2.21800000       1.36860000
C        1.59940000      -2.84150000       0.68020000
C        1.25240000      -2.19640000      -0.69330000
C       -0.18740000      -2.66930000      -0.82990000
C       -0.72360000      -2.68210000       0.39550000
H        1.00370000       1.94890000       0.46970000
H       -0.04290000       2.01710000      -0.95350000
H       -0.75230000       2.00000000       0.66820000
H       -0.92000000      -0.32470000      -0.39580000
H        2.17520000      -0.12960000      -0.48710000
H        1.11200000      -0.15510000       1.94280000
H        0.18310000      -2.46190000       2.41790000
H        2.54460000      -2.47900000       1.09750000
H        1.58790000      -3.93560000       0.66370000
H        1.91150000      -2.42050000      -1.53230000
H       -0.69080000      -2.85740000      -1.77010000
H       -1.75430000      -2.88290000       0.66040000
