13
Properties=species:S:1:pos:R:3 gdb_128933=T pbc="F F F"
N        0.26050000      -0.81770000       1.06350000
C        0.13750000       0.10680000       0.38180000
C        0.01370000       1.26800000      -0.51050000
N        1.21350000       2.07700000      -0.54100000
C        1.19840000       3.35790000      -0.02400000
C        2.51650000       3.99490000       0.00450000
N        2.57890000       5.21610000       0.45840000
N        2.60170000       6.27280000       0.85670000
O        0.17470000       3.90430000       0.34960000
H       -0.25400000       0.91150000      -1.51210000
H       -0.78990000       1.92230000      -0.15850000
H        2.09190000       1.62220000      -0.73010000
H        3.44960000       3.55480000      -0.31430000
