15
Properties=species:S:1:pos:R:3 gdb_125257=T pbc="F F F"
C        0.16160000       1.53780000      -0.00230000
C       -0.03220000       0.06460000       0.05350000
C       -1.12430000      -0.73620000      -0.07570000
C       -0.58460000      -2.04220000       0.08880000
N       -1.23320000      -3.27060000       0.05660000
C       -2.57340000      -3.47390000      -0.14800000
O       -3.39760000      -2.60900000      -0.33220000
N        0.71370000      -2.03080000       0.29800000
O        1.06530000      -0.68340000       0.27510000
H        0.85760000       1.81040000      -0.80220000
H       -0.79260000       2.03460000      -0.18550000
H        0.57690000       1.91330000       0.93850000
H       -2.14910000      -0.47150000      -0.25700000
H       -0.64220000      -4.07700000       0.19980000
H       -2.81770000      -4.55250000      -0.12370000
