19
Properties=species:S:1:pos:R:3 gdb_93516=T pbc="F F F"
C        0.11830000       1.63420000      -0.07280000
C       -0.00430000       0.10550000      -0.02210000
C        0.66260000      -0.57240000      -1.21240000
O        2.09330000      -0.45750000      -1.15970000
C        2.77090000      -0.43440000       0.00930000
O        3.96490000      -0.40610000       0.02070000
O        2.06760000      -0.40420000       1.16190000
C        0.62750000      -0.54270000       1.21260000
C        0.19720000       0.00960000       2.56110000
H        1.15990000       1.96060000      -0.00980000
H       -0.29390000       2.01490000      -1.01210000
H       -0.43160000       2.10530000       0.74560000
H       -1.06520000      -0.17340000      -0.03690000
H        0.40120000      -1.63770000      -1.24900000
H        0.37380000      -0.11690000      -2.16290000
H        0.40600000      -1.61890000       1.18240000
H        0.45800000       1.06610000       2.65660000
H       -0.88450000      -0.10060000       2.68590000
H        0.69690000      -0.53740000       3.36420000
