19
Properties=species:S:1:pos:R:3 gdb_39089=T pbc="F F F"
C       -0.06340000       1.57510000       0.21780000
C        1.44510000       1.39190000       0.02870000
O        1.80540000       0.56450000       1.16530000
C        0.73700000      -0.42810000       1.19670000
C       -0.03590000       0.02030000      -0.03330000
C       -1.16690000      -0.61790000      -0.82460000
C       -0.83580000      -0.11620000      -2.22780000
C        0.38520000       0.42570000      -2.32500000
C        1.14810000       0.29920000      -1.03460000
H       -0.39680000       1.92530000       1.19760000
H       -0.55470000       2.11910000      -0.58710000
H        2.17600000       2.19440000      -0.06380000
H        1.16130000      -1.43500000       1.11080000
H        0.18780000      -0.34910000       2.14240000
H       -1.15740000      -1.71640000      -0.78390000
H       -2.16010000      -0.29700000      -0.48840000
H       -1.54010000      -0.20200000      -3.04930000
H        0.81350000       0.81290000      -3.24330000
H        1.95210000      -0.44420000      -1.10370000
