19
Properties=species:S:1:pos:R:3 gdb_72454=T pbc="F F F"
O       -0.07980000       1.36780000       0.02050000
C        0.01910000      -0.02950000       0.05100000
C        0.78800000      -0.68060000      -1.13380000
O        1.07500000      -2.01250000      -0.68310000
C        0.49550000      -2.11420000       0.64330000
C        0.77220000      -0.72010000       1.21560000
C       -1.01950000      -2.15100000       0.44930000
C       -1.91340000      -1.29840000       1.31550000
C       -1.34520000      -0.71660000       0.04980000
H        0.81030000       1.73350000      -0.03150000
H        0.19350000      -0.70390000      -2.05470000
H        1.72890000      -0.14740000      -1.33900000
H        0.95130000      -2.97410000       1.13410000
H        1.84170000      -0.49420000       1.21740000
H        0.35910000      -0.51510000       2.20210000
H       -1.43590000      -2.99870000      -0.08170000
H       -2.96880000      -1.54590000       1.27270000
H       -1.59470000      -0.95510000       2.29260000
H       -2.00800000      -0.48960000      -0.77760000
