21
Properties=species:S:1:pos:R:3 gdb_59490=T pbc="F F F"
C       -1.60830000       0.79110000      -0.77450000
C       -1.32980000      -0.64540000      -1.24080000
C       -2.25110000      -1.06300000      -2.39670000
C        0.11960000      -0.77980000      -1.65810000
O        1.12070000      -0.80190000      -0.62730000
C        0.96960000      -1.96080000      -1.44630000
C        0.51650000      -3.23410000      -0.74660000
C        0.05000000      -4.24100000      -1.69330000
C       -0.32820000      -5.05000000      -2.49790000
H       -0.94280000       1.06970000       0.04760000
H       -1.45380000       1.50550000      -1.59190000
H       -2.64230000       0.89650000      -0.43140000
H       -1.50790000      -1.31410000      -0.39130000
H       -2.08920000      -0.42900000      -3.27670000
H       -2.07300000      -2.10140000      -2.69210000
H       -3.30220000      -0.96390000      -2.10860000
H        0.39010000      -0.13890000      -2.50250000
H        1.78730000      -2.12240000      -2.15090000
H        1.36210000      -3.63080000      -0.16970000
H       -0.26650000      -3.00170000      -0.01850000
H       -0.66300000      -5.77500000      -3.19760000
