20
Properties=species:S:1:pos:R:3 gdb_47722=T pbc="F F F"
O        0.06420000       0.02870000       0.35400000
C        0.00870000       1.21520000       0.10220000
C       -1.31360000       1.94690000      -0.06710000
C       -1.26490000       3.09540000      -1.08780000
C       -0.07550000       4.02510000      -0.81810000
C        1.24450000       3.25010000      -0.91330000
C        1.26620000       2.04520000       0.01210000
C        2.07000000       2.04100000       1.28200000
N        2.52710000       1.30600000       0.10680000
H       -2.08600000       1.20830000      -0.29700000
H       -1.55600000       2.36110000       0.92320000
H       -1.17890000       2.68190000      -2.10120000
H       -2.20850000       3.65010000      -1.05770000
H       -0.07130000       4.85440000      -1.53290000
H       -0.17630000       4.47040000       0.18090000
H        1.38270000       2.89690000      -1.94400000
H        2.10150000       3.89330000      -0.69110000
H        2.64450000       2.92950000       1.53310000
H        1.68270000       1.48110000       2.12920000
H        2.28530000       0.32060000       0.22370000
