14
Properties=species:S:1:pos:R:3 gdb_1436=T pbc="F F F"
C       -0.07420000       1.53650000      -0.10400000
C        0.02910000       0.02150000       0.05320000
C        0.78170000      -0.40310000       1.30390000
O        1.24180000       0.37400000       2.09820000
C        0.91720000      -1.93130000       1.48600000
C        1.62550000      -2.31750000       2.69920000
N        2.18330000      -2.64580000       3.65500000
H        0.91790000       1.99090000      -0.16060000
H       -0.62520000       1.79030000      -1.01320000
H       -0.58870000       1.98230000       0.75060000
H       -0.96580000      -0.44460000       0.08620000
H        0.52770000      -0.43690000      -0.81230000
H       -0.08370000      -2.38010000       1.48520000
H        1.43230000      -2.34720000       0.61120000
