23
Properties=species:S:1:pos:R:3 gdb_110317=T pbc="F F F"
C        0.08840000       1.38330000      -0.33380000
C        0.03380000      -0.00880000       0.30600000
C       -1.33550000      -0.65070000       0.16870000
C       -1.92160000      -1.25340000      -1.08920000
C       -0.91600000      -2.07640000      -1.87670000
O        0.10130000      -1.32020000      -2.50720000
C       -0.58190000      -2.90910000      -0.59060000
C       -1.66160000      -2.11830000       0.16720000
C       -2.64470000      -2.75100000       1.11120000
H        1.06400000       1.85380000      -0.17470000
H       -0.08190000       1.30940000      -1.41170000
H       -0.67440000       2.04840000       0.08730000
H        0.79950000      -0.63570000      -0.15520000
H        0.28040000       0.06240000       1.37420000
H       -2.10510000      -0.08650000       0.69790000
H       -2.86580000      -0.90280000      -1.49140000
H       -1.42880000      -2.71080000      -2.61220000
H        0.67160000      -1.92660000      -2.99070000
H       -0.82980000      -3.96820000      -0.70490000
H        0.44180000      -2.82760000      -0.21310000
H       -2.16060000      -3.04570000       2.05070000
H       -3.45540000      -2.05910000       1.36280000
H       -3.09480000      -3.65220000       0.67770000
