18
Properties=species:S:1:pos:R:3 gdb_22207=T pbc="F F F"
C       -0.03360000       1.45480000       0.42990000
C       -0.02640000       0.01150000       0.25930000
C       -0.03440000      -1.18570000       0.10710000
C        0.01550000      -2.59840000      -0.05880000
N       -1.10740000      -3.20250000      -0.24540000
O       -0.92520000      -4.58160000      -0.39780000
C        1.37230000      -3.30170000       0.01600000
C        1.89470000      -3.64930000      -1.37770000
O        2.35560000      -2.49570000       0.63990000
H        0.98560000       1.85280000       0.47730000
H       -0.54710000       1.94650000      -0.40370000
H       -0.54990000       1.74270000       1.35260000
H       -1.83060000      -4.89500000      -0.49550000
H        1.21500000      -4.23360000       0.57800000
H        2.01800000      -2.73950000      -1.97180000
H        2.86870000      -4.13790000      -1.28690000
H        1.20120000      -4.32230000      -1.88490000
H        1.98050000      -2.12110000       1.44360000
