21
Properties=species:S:1:pos:R:3 gdb_75332=T pbc="F F F"
C       -0.41430000       1.52240000       0.05360000
C       -0.02760000       0.06970000      -0.01710000
C       -0.10600000      -0.63190000      -1.14810000
C        0.25690000      -2.08280000      -1.29310000
C        0.97140000      -2.65290000      -0.09170000
O        2.18650000      -1.99890000       0.29580000
C        1.05580000      -1.91860000       1.18060000
C        1.22270000      -2.66400000       2.48530000
C        0.43770000      -0.53700000       1.28520000
H        0.43610000       2.14210000       0.36700000
H       -0.76840000       1.89370000      -0.91160000
H       -1.20790000       1.68880000       0.79410000
H       -0.46050000      -0.13780000      -2.05040000
H       -0.64730000      -2.68260000      -1.47790000
H        0.88640000      -2.22660000      -2.18300000
H        1.02870000      -3.74250000      -0.05770000
H        1.73460000      -3.61520000       2.31980000
H        1.81820000      -2.07500000       3.19210000
H        0.25180000      -2.86420000       2.95120000
H        1.16680000       0.13360000       1.76460000
H       -0.41070000      -0.58290000       1.98480000
