25
Properties=species:S:1:pos:R:3 gdb_88858=T pbc="F F F"
C        1.42770000       1.15260000      -0.56390000
C        0.87930000      -0.22280000      -0.25030000
C        1.80180000      -1.39390000      -0.00900000
C        0.95830000      -0.85420000       1.12430000
C        1.58330000      -0.17830000       2.32350000
C        0.63180000       0.76720000       3.09000000
C        1.22930000       0.90070000       4.51620000
C        2.28600000      -0.23520000       4.64370000
C        2.04850000      -1.14730000       3.42760000
H        2.36030000       1.35370000      -0.02870000
H        1.64070000       1.24970000      -1.63450000
H        0.71430000       1.94040000      -0.29600000
H       -0.02920000      -0.45840000      -0.79970000
H        1.55660000      -2.35980000      -0.43740000
H        2.86750000      -1.18480000       0.02480000
H        0.09640000      -1.46460000       1.39080000
H        2.45950000       0.39880000       1.99840000
H        0.50710000       1.73110000       2.58850000
H       -0.36250000       0.30600000       3.13680000
H        1.69210000       1.88060000       4.66520000
H        0.44890000       0.80930000       5.27720000
H        3.29670000       0.18530000       4.59620000
H        2.21400000      -0.77190000       5.59370000
H        1.24360000      -1.86450000       3.63880000
H        2.93130000      -1.72800000       3.14390000
