18
Properties=species:S:1:pos:R:3 gdb_84742=T pbc="F F F"
C       -0.06260000       1.56950000       0.01090000
C        0.09760000       0.05010000       0.00690000
C        0.73800000      -0.49250000      -1.29570000
O        1.90820000       0.23460000      -1.68270000
C        1.02600000      -1.96430000      -1.17590000
C        1.28680000      -2.49830000       0.02140000
N        1.23210000      -1.75750000       1.20090000
C        0.79370000      -0.44640000       1.27450000
O        0.91520000       0.19820000       2.29490000
H        0.90690000       2.05430000      -0.11880000
H       -0.71120000       1.88500000      -0.81190000
H       -0.49430000       1.90620000       0.95440000
H       -0.89770000      -0.42120000       0.05240000
H        0.02620000      -0.30590000      -2.10720000
H        2.65240000      -0.13060000      -1.19170000
H        1.10450000      -2.56990000      -2.06970000
H        1.56070000      -3.53890000       0.15590000
H        1.61920000      -2.13340000       2.05350000
