19
Properties=species:S:1:pos:R:3 gdb_39253=T pbc="F F F"
C       -0.25260000       1.43310000      -0.03420000
C        1.19830000       1.05220000       0.09050000
O        1.73490000       1.00100000       1.38820000
C        1.52220000      -0.32140000       1.89710000
C        0.18870000      -0.80340000       1.29180000
C        0.10010000      -2.30020000       0.88360000
C       -0.01830000      -2.26800000      -0.62550000
C       -0.00080000      -1.02680000      -1.11730000
C        0.15050000      -0.02640000      -0.04160000
H       -0.74960000       1.82490000       0.84790000
H       -0.57520000       1.86920000      -0.97560000
H        1.91020000       1.29350000      -0.69380000
H        2.34430000      -0.98450000       1.58290000
H        1.52510000      -0.25870000       2.98890000
H       -0.64270000      -0.52390000       1.94530000
H        0.98750000      -2.86390000       1.20440000
H       -0.75760000      -2.80220000       1.34670000
H       -0.09190000      -3.17220000      -1.21930000
H       -0.07100000      -0.76170000      -2.16620000
