17
Properties=species:S:1:pos:R:3 gdb_44509=T pbc="F F F"
O        0.01260000      -0.08270000       0.08950000
C       -0.00800000       1.13010000       0.02850000
C       -1.29440000       1.95820000      -0.01830000
N       -1.15830000       3.41900000      -0.09120000
C       -0.07340000       3.93770000      -1.03380000
C       -0.06870000       5.22240000      -0.17760000
C       -0.08070000       4.03010000       0.80320000
C        1.00980000       3.34900000      -0.07900000
N        1.10720000       1.91490000      -0.00650000
H       -1.87840000       1.61830000      -0.88070000
H       -1.88540000       1.70630000       0.86920000
H       -0.15620000       3.83150000      -2.11700000
H        0.83140000       5.83880000      -0.20500000
H       -0.99200000       5.79850000      -0.21020000
H       -0.17230000       4.03310000       1.89090000
H        2.00780000       3.79460000      -0.09740000
H        2.00390000       1.45440000       0.02020000
