17
Properties=species:S:1:pos:R:3 gdb_126412=T pbc="F F F"
C        0.09410000       1.56870000       0.00830000
C       -0.02320000       0.04460000       0.00250000
C       -1.43780000      -0.47530000       0.01300000
N       -2.43920000       0.35610000       0.02400000
N       -3.65970000      -0.17370000       0.03270000
C       -3.98690000      -1.53590000       0.03120000
N       -5.21790000      -1.86540000       0.04040000
N       -2.89310000      -2.41270000       0.01940000
C       -1.71040000      -1.89580000       0.01100000
H        1.14610000       1.86620000       0.00010000
H       -0.39620000       2.00470000      -0.86590000
H       -0.38030000       1.99680000       0.89510000
H        0.49250000      -0.36730000      -0.87660000
H        0.50830000      -0.37530000       0.86820000
H       -4.42550000       0.48460000       0.04110000
H       -5.28640000      -2.88130000       0.03780000
H       -0.86580000      -2.58760000       0.00190000
