17
Properties=species:S:1:pos:R:3 gdb_32123=T pbc="F F F"
C        0.05520000       1.44660000      -0.03430000
N       -0.05380000       0.01660000       0.11880000
C       -1.23690000      -0.67390000       0.06680000
N       -1.11440000      -2.00970000      -0.02350000
C       -2.23960000      -2.72440000      -0.04740000
C       -3.52090000      -2.19630000       0.01010000
C       -3.63250000      -0.80660000       0.09590000
O       -4.87770000      -0.27100000       0.14750000
C       -2.48260000      -0.02480000       0.12230000
H        1.11100000       1.72370000      -0.01690000
H       -0.38040000       1.81360000      -0.97640000
H       -0.43670000       1.97450000       0.79230000
H        0.74940000      -0.55390000      -0.09010000
H       -2.10850000      -3.80220000      -0.12010000
H       -4.40420000      -2.82060000      -0.01460000
H       -4.80730000       0.68810000       0.20610000
H       -2.55240000       1.05550000       0.18840000
