20
Properties=species:S:1:pos:R:3 gdb_96867=T pbc="F F F"
C        0.00930000       1.40570000       0.00700000
N       -0.01350000      -0.04670000      -0.01200000
C        0.54970000      -0.66490000      -0.95970000
O        1.20540000      -0.08550000      -2.02110000
C        1.72610000      -1.11070000      -2.88630000
C        3.23590000      -0.94000000      -3.04180000
C        1.29560000      -2.39320000      -2.23040000
C        0.61620000      -2.13130000      -1.11090000
C       -0.00310000      -3.05220000      -0.11470000
H        0.75990000       1.85190000      -0.65580000
H       -0.97590000       1.79320000      -0.28350000
H        0.19220000       1.74600000       1.03180000
H        1.24530000      -0.98420000      -3.86780000
H        3.73450000      -1.05240000      -2.07510000
H        3.63260000      -1.69330000      -3.73010000
H        3.46590000       0.05010000      -3.44420000
H        1.53230000      -3.36770000      -2.63850000
H        0.42280000      -2.88240000       0.87960000
H       -1.07590000      -2.85270000      -0.02570000
H        0.14270000      -4.09940000      -0.39000000
