19
Properties=species:S:1:pos:R:3 gdb_121007=T pbc="F F F"
C       -0.15440000       1.53020000      -0.09230000
C       -0.00490000       0.02360000       0.02190000
O        0.71400000      -0.44100000      -1.11750000
C        0.84870000      -1.81750000      -1.19490000
C        1.57960000      -2.20010000      -2.50060000
N        2.92360000      -2.60310000      -2.08830000
C        2.89340000      -2.64340000      -0.81590000
N        3.89570000      -3.05740000       0.01980000
O        1.73730000      -2.31250000      -0.16490000
H        0.82680000       2.01190000      -0.12550000
H       -0.69720000       1.79610000      -1.00370000
H       -0.70460000       1.92270000       0.76810000
H        0.53330000      -0.24970000       0.93890000
H       -0.99100000      -0.46670000       0.05900000
H       -0.11610000      -2.31400000      -1.02750000
H        1.06880000      -3.01860000      -3.02220000
H        1.60620000      -1.33580000      -3.17090000
H        4.80260000      -3.08560000      -0.42040000
H        3.88660000      -2.64110000       0.93820000
