19
Properties=species:S:1:pos:R:3 gdb_54588=T pbc="F F F"
C        0.44110000       0.87640000      -0.85870000
C       -0.25210000       0.34220000       0.37570000
O        0.10090000       0.63960000       1.49840000
C       -1.39290000      -0.63250000       0.17220000
C       -2.39460000      -0.78170000       1.34860000
N       -2.26140000      -2.26880000       1.32860000
C       -1.20960000      -2.19670000       0.29510000
C       -1.79350000      -2.29670000      -1.13160000
N       -1.89270000      -0.80960000      -1.20600000
H        1.27330000       1.51500000      -0.56060000
H        0.79520000       0.05370000      -1.48780000
H       -0.26880000       1.43590000      -1.47630000
H       -2.00530000      -0.30580000       2.25260000
H       -3.41350000      -0.42670000       1.15360000
H       -1.92000000      -2.63450000       2.20950000
H       -0.26120000      -2.68870000       0.51640000
H       -1.12120000      -2.69970000      -1.89790000
H       -2.74250000      -2.84120000      -1.15670000
H       -2.82750000      -0.44890000      -1.36660000
