15
Properties=species:S:1:pos:R:3 gdb_29886=T pbc="F F F"
C       -0.09390000       1.48810000       0.00360000
N       -0.00430000       0.03640000       0.01880000
C        0.02500000      -0.69740000      -1.15250000
N        0.04380000      -1.96800000      -1.22840000
C        0.01860000      -2.71080000      -0.00560000
O       -0.01650000      -3.91560000      -0.03060000
N        0.05100000      -1.99850000       1.20270000
C        0.02570000      -0.70950000       1.18580000
N       -0.03240000      -0.00780000       2.36490000
H        0.82070000       1.95540000       0.38760000
H       -0.23130000       1.81740000      -1.02780000
H       -0.94740000       1.82870000       0.59640000
H        0.02980000      -0.08790000      -2.05700000
H        0.12650000      -0.60330000       3.16520000
H        0.41770000       0.89270000       2.41510000
