17
Properties=species:S:1:pos:R:3 gdb_68508=T pbc="F F F"
C        0.00770000       1.55080000       0.02480000
C        0.01010000       0.04390000      -0.01380000
C        0.44110000      -0.80390000      -1.25820000
C       -0.35110000      -1.97250000      -0.59480000
C        0.39990000      -2.15670000       0.73630000
O        1.73200000      -1.63040000       0.78050000
C        0.65030000      -0.76180000       1.13920000
C       -1.29830000      -0.81380000      -0.13920000
O       -2.46940000      -0.61540000      -0.06580000
H        1.02270000       1.95250000      -0.06010000
H       -0.59230000       1.96260000      -0.79240000
H       -0.41980000       1.91650000       0.96450000
H       -0.02760000      -0.45230000      -2.17840000
H        1.51040000      -0.96150000      -1.38100000
H       -0.69770000      -2.84530000      -1.14130000
H        0.17570000      -2.96970000       1.41670000
H        0.63850000      -0.39540000       2.16000000
