21
Properties=species:S:1:pos:R:3 gdb_76343=T pbc="F F F"
C       -0.52640000       1.42960000       0.02890000
C       -0.11980000      -0.03890000      -0.06500000
C        0.61170000      -0.49290000      -1.37470000
C        0.43380000       0.29040000      -2.67080000
C        1.98740000      -0.47160000      -0.62230000
C        2.86920000       0.73630000      -0.80240000
O        4.07470000       0.68640000      -0.77080000
C        1.16320000      -0.41480000       0.72130000
O        1.53810000       0.52240000       1.70130000
H        0.29500000       2.11390000      -0.19940000
H       -1.34750000       1.64490000      -0.66220000
H       -0.86340000       1.66290000       1.04240000
H       -0.98570000      -0.65640000       0.19250000
H        0.36470000      -1.54130000      -1.57010000
H        0.61600000       1.36100000      -2.54650000
H        1.12010000      -0.07680000      -3.44170000
H       -0.58570000       0.17430000      -3.05400000
H        2.61890000      -1.35520000      -0.74100000
H        2.35260000       1.70910000      -0.94340000
H        1.09000000      -1.42490000       1.14620000
H        2.36290000       0.23230000       2.10500000
