16
Properties=species:S:1:pos:R:3 gdb_52368=T pbc="F F F"
O       -0.56640000       0.77920000       0.88420000
C        0.05930000       1.00580000      -0.11730000
C        1.33810000       1.81510000      -0.17400000
C        1.24900000       2.95090000      -1.20550000
C        2.56610000       3.71540000      -1.33590000
C        2.50400000       4.83680000      -2.34750000
O        1.54010000       5.12420000      -3.00950000
C        3.76260000       5.60480000      -2.49090000
N        4.75340000       6.19230000      -2.59060000
H       -0.27890000       0.61680000      -1.10680000
H        1.55530000       2.19110000       0.83030000
H        2.14730000       1.12620000      -0.45950000
H        0.96720000       2.54930000      -2.18530000
H        0.45350000       3.64920000      -0.92530000
H        2.87970000       4.15100000      -0.37650000
H        3.39360000       3.05270000      -1.62790000
