19
Properties=species:S:1:pos:R:3 gdb_91666=T pbc="F F F"
O       -0.05330000       1.41530000      -0.03980000
C       -0.00700000       0.00290000       0.03170000
C        0.48630000      -0.59270000       1.39720000
C       -0.82200000      -1.31780000       1.77440000
O       -1.17780000      -1.94360000       0.49300000
C       -1.44190000      -0.56810000       0.07380000
C       -1.90210000      -0.27180000       1.49990000
C       -3.29580000      -0.21240000       2.02310000
C       -2.34410000       0.96070000       2.20670000
H        0.84880000       1.74500000      -0.08620000
H        0.54540000      -0.41860000      -0.81710000
H        1.31840000      -1.29140000       1.28550000
H        0.76230000       0.19760000       2.10110000
H       -0.83900000      -1.99460000       2.62910000
H       -2.07330000      -0.46640000      -0.80840000
H       -4.10920000      -0.10470000       1.31270000
H       -3.54520000      -0.80810000       2.89550000
H       -1.95750000       1.14880000       3.20380000
H       -2.50500000       1.85590000       1.61690000
