19
Properties=species:S:1:pos:R:3 gdb_102804=T pbc="F F F"
C        0.14140000       1.51920000      -0.04950000
C        0.02090000      -0.00130000       0.04860000
O        0.53720000      -0.48010000       1.28990000
C       -1.42790000      -0.50070000       0.00590000
C       -2.22810000      -0.04810000      -1.21210000
O       -1.59770000      -0.40260000      -2.42710000
O       -1.41720000      -1.93940000      -0.05980000
C       -1.38490000      -2.64010000       1.09580000
O       -1.28020000      -3.82930000       1.11250000
H        1.18220000       1.81690000       0.11250000
H       -0.15710000       1.87910000      -1.03770000
H       -0.46930000       2.01270000       0.71360000
H        0.54990000      -0.46710000      -0.79250000
H        1.49750000      -0.47700000       1.24340000
H       -1.93790000      -0.17770000       0.92460000
H       -3.23820000      -0.47700000      -1.13820000
H       -2.32810000       1.04050000      -1.21220000
H       -1.51190000      -1.36320000      -2.42580000
H       -1.48680000      -2.00040000       1.98810000
