15
Properties=species:S:1:pos:R:3 gdb_10045=T pbc="F F F"
C        0.15920000       1.41970000      -0.09310000
O       -0.12390000       0.04470000       0.09170000
C        0.60890000      -0.55870000       1.13470000
C       -0.02470000      -1.94820000       1.36350000
C       -1.40700000      -1.85020000       1.82530000
N       -2.49310000      -1.77750000       2.21150000
C        2.03790000      -0.69390000       0.82220000
C        3.20410000      -0.81190000       0.55760000
H        1.20740000       1.58170000      -0.37660000
H       -0.49060000       1.76690000      -0.89830000
H       -0.05670000       1.99760000       0.81760000
H        0.50430000       0.03220000       2.05960000
H        0.00790000      -2.50260000       0.42070000
H        0.56490000      -2.50330000       2.09880000
H        4.23680000      -0.90930000       0.32690000
