17
Properties=species:S:1:pos:R:3 gdb_44453=T pbc="F F F"
N       -0.02720000       1.15630000      -0.44910000
C       -0.00790000      -0.03390000      -0.04450000
C       -1.25530000      -0.94270000       0.06540000
C       -0.55600000      -2.27050000       0.13160000
C       -0.45040000      -3.73200000       0.64730000
C        0.94830000      -3.32140000       0.03540000
N        0.25100000      -2.65630000      -1.11780000
C        0.77570000      -1.98770000       0.82020000
O        1.14060000      -0.69730000       0.37190000
H        0.91030000       1.56080000      -0.42930000
H       -1.80610000      -0.70890000       0.98270000
H       -1.90990000      -0.78460000      -0.79140000
H       -0.52900000      -3.90520000       1.72600000
H       -0.98750000      -4.49260000       0.07610000
H        1.83050000      -3.94950000      -0.09510000
H       -0.27810000      -3.35900000      -1.64240000
H        0.83910000      -2.05200000       1.90860000
