21
Properties=species:S:1:pos:R:3 gdb_41699=T pbc="F F F"
C       -0.02640000       1.57830000       0.04720000
C        1.48740000       1.95600000       0.00370000
C        2.19480000       0.60780000       0.23080000
C        2.20680000      -0.32800000      -1.01530000
C        0.68290000      -0.30610000      -1.41070000
C        0.02060000       0.04300000      -0.04880000
C        1.17070000      -0.28960000       0.98260000
C        1.75460000      -1.66970000       0.80150000
C        2.41040000      -1.68470000      -0.36350000
H       -0.47870000       1.89670000       0.99300000
H       -0.60680000       2.03300000      -0.76100000
H        1.77540000       2.41150000      -0.94980000
H        1.74600000       2.67400000       0.78730000
H        3.17490000       0.67560000       0.70750000
H        2.89070000      -0.06670000      -1.82430000
H        0.46300000       0.45810000      -2.16300000
H        0.36730000      -1.27060000      -1.81370000
H       -0.93270000      -0.45470000       0.13450000
H        0.91900000       0.00260000       2.00430000
H        1.60140000      -2.49910000       1.48090000
H        2.87920000      -2.53390000      -0.84570000
