18
Properties=species:S:1:pos:R:3 gdb_6257=T pbc="F F F"
C        0.22480000       1.62720000      -0.12560000
C        0.00910000       0.11850000       0.08950000
C       -1.46720000      -0.20090000       0.34100000
N        0.44970000      -0.61550000      -1.09150000
C        1.67340000      -0.97910000      -1.18670000
N        2.71720000      -0.82870000      -0.31250000
C        2.03750000      -1.72500000      -2.43620000
O        3.16250000      -2.08790000      -2.68500000
H        1.28170000       1.86500000      -0.28430000
H       -0.32860000       1.96260000      -1.00790000
H       -0.12700000       2.19480000       0.74160000
H        0.58080000      -0.19110000       0.98170000
H       -2.07010000       0.09950000      -0.52170000
H       -1.60880000      -1.27450000       0.49290000
H       -1.83580000       0.32580000       1.22720000
H        2.69560000      -0.10350000       0.38220000
H        3.62100000      -1.08230000      -0.68430000
H        1.17430000      -1.89980000      -3.10470000
