14
Properties=species:S:1:pos:R:3 gdb_16686=T pbc="F F F"
O       -0.01100000       1.49590000       0.07270000
C        0.02460000       0.10210000      -0.00930000
C       -1.33270000      -0.60840000      -0.20150000
C       -1.98080000       0.10790000      -1.39750000
C       -0.72170000       0.10680000      -2.29290000
O       -0.55520000       0.54560000      -3.39480000
C        0.26600000      -0.62720000      -1.36900000
O       -0.59530000      -1.69380000      -0.85890000
H        0.88610000       1.83140000       0.16550000
H        0.61010000      -0.37370000       0.78440000
H       -1.95590000      -0.93260000       0.63020000
H       -2.79500000      -0.47420000      -1.83490000
H       -2.31940000       1.12640000      -1.19550000
H        1.23050000      -0.94620000      -1.75820000
