13
Properties=species:S:1:pos:R:3 gdb_29467=T pbc="F F F"
N        0.01510000       1.41540000       0.17570000
C        0.03820000       0.02990000       0.04680000
C       -1.01940000      -0.84340000      -0.00400000
O       -0.59800000      -2.19460000      -0.04520000
C        0.71900000      -2.07940000      -0.02520000
C        1.20460000      -0.81820000       0.02910000
N        2.59620000      -0.88900000       0.02980000
C        2.82820000      -2.16090000      -0.02110000
O        1.70570000      -2.98780000      -0.05920000
H        0.81950000       1.86510000      -0.23930000
H       -0.83970000       1.84770000      -0.14620000
H       -2.08640000      -0.71080000      -0.00040000
H        3.77440000      -2.67600000      -0.03690000
