16
Properties=species:S:1:pos:R:3 gdb_20249=T pbc="F F F"
C       -0.02340000       1.51660000      -0.04560000
C        1.45590000       1.87320000       0.03840000
C        2.46470000       0.92570000      -0.59530000
C        2.18990000       0.90080000       0.91420000
C        1.36490000      -0.39150000       0.70900000
C        0.00970000      -0.00940000       0.00300000
O        0.49680000      -0.50040000      -1.28090000
C        1.83570000      -0.47860000      -0.75320000
H       -0.56380000       1.93630000       0.81220000
H       -0.51040000       1.85480000      -0.96470000
H        1.75570000       2.91570000       0.05980000
H        3.32710000       1.30590000      -1.12940000
H        2.83250000       1.15050000       1.74740000
H        1.40040000      -1.22410000       1.40590000
H       -0.92090000      -0.50050000       0.29470000
H        2.48150000      -1.26020000      -1.15750000
