16
Properties=species:S:1:pos:R:3 gdb_87553=T pbc="F F F"
O       -0.01950000       1.42330000      -0.05940000
C        0.04220000       0.03350000      -0.01900000
C       -0.38620000      -0.74980000       1.18750000
C       -1.24790000      -0.74620000      -0.05570000
N       -2.57030000      -0.04810000      -0.09290000
C       -2.80900000       0.19280000      -1.52140000
C       -3.09280000      -1.17230000      -0.99220000
C       -1.78830000      -1.91950000      -0.82800000
O       -1.41570000      -3.03570000      -1.05060000
H       -0.86650000       1.69900000       0.31170000
H        0.88210000      -0.33060000      -0.60140000
H        0.12930000      -1.67620000       1.41970000
H       -0.77840000      -0.20330000       2.03950000
H       -3.67410000       0.81840000      -1.72070000
H       -1.95660000       0.35740000      -2.17470000
H       -4.09500000      -1.57430000      -0.90490000
