23
Properties=species:S:1:pos:R:3 gdb_74330=T pbc="F F F"
C        0.05190000       1.57270000      -0.06570000
C        0.01960000       0.07950000       0.02140000
C       -0.38040000      -0.78090000      -0.91700000
C       -0.23430000      -2.22930000      -0.49980000
C        0.02950000      -2.10480000       1.02770000
C        0.52080000      -0.65580000       1.24960000
C       -1.41990000      -3.10710000      -0.84820000
C       -1.51740000      -3.76990000      -2.19940000
C       -1.25910000      -4.60210000      -0.96690000
H        1.07320000       1.95560000       0.06050000
H       -0.32790000       1.93180000      -1.02620000
H       -0.54870000       2.02930000       0.73170000
H       -0.74680000      -0.50000000      -1.89960000
H        0.64950000      -2.66180000      -0.99780000
H       -0.91710000      -2.25370000       1.55940000
H        0.72780000      -2.85920000       1.39930000
H        1.61810000      -0.59760000       1.30500000
H        0.14830000      -0.21990000       2.18490000
H       -2.35950000      -2.76280000      -0.42100000
H       -2.48970000      -3.83980000      -2.67440000
H       -0.69520000      -3.62750000      -2.89380000
H       -0.26370000      -5.01450000      -0.83570000
H       -2.05440000      -5.24130000      -0.59980000
