23
Properties=species:S:1:pos:R:3 gdb_122185=T pbc="F F F"
C        0.04560000       1.65130000       0.12730000
C        0.01740000       0.12880000       0.02350000
C       -1.40430000      -0.44880000      -0.00650000
C       -2.26740000       0.02110000      -1.18270000
C       -3.61180000      -0.69260000      -1.24320000
O       -4.33540000      -0.16740000      -2.34570000
C        0.96840000      -0.48320000      -1.04160000
O        1.70450000      -1.21370000      -0.04140000
C        0.94440000      -0.61230000       1.02420000
H        1.07410000       2.01750000       0.20830000
H       -0.40530000       2.12480000      -0.75040000
H       -0.50340000       1.99680000       1.01110000
H       -1.32810000      -1.54440000      -0.03100000
H       -1.90610000      -0.19970000       0.93930000
H       -2.45840000       1.09790000      -1.12030000
H       -1.74520000      -0.14970000      -2.13250000
H       -3.45230000      -1.77820000      -1.35090000
H       -4.15750000      -0.53790000      -0.29750000
H       -5.18210000      -0.62050000      -2.39380000
H        0.50560000      -1.15100000      -1.77930000
H        1.60230000       0.24210000      -1.56950000
H        1.56450000       0.04110000       1.65320000
H        0.46180000      -1.36450000       1.66160000
