24
Properties=species:S:1:pos:R:3 gdb_100024=T pbc="F F F"
C        0.13220000       1.34470000       0.23620000
O        0.12570000      -0.04630000       0.01060000
C        0.65520000      -0.55060000      -1.22820000
C       -0.26970000      -0.14380000      -2.38790000
C        2.08690000      -0.04470000      -1.45980000
C        0.65420000      -2.08720000      -1.04760000
C        0.98920000      -2.92100000      -2.27040000
C        0.99520000      -2.63470000       0.29060000
N       -0.39680000      -2.68490000      -0.20650000
H        1.14770000       1.75550000       0.31310000
H       -0.41250000       1.90480000      -0.53570000
H       -0.37440000       1.50130000       1.19210000
H       -0.33810000       0.94420000      -2.47480000
H        0.10760000      -0.51800000      -3.34260000
H       -1.27580000      -0.54340000      -2.23250000
H        2.71660000      -0.26820000      -0.59410000
H        2.52660000      -0.52560000      -2.33670000
H        2.10840000       1.03430000      -1.63940000
H        1.98440000      -2.69450000      -2.66720000
H        0.96660000      -3.97870000      -1.99840000
H        0.25960000      -2.77650000      -3.07280000
H        1.49380000      -3.59800000       0.36260000
H        1.21940000      -1.93460000       1.08800000
H       -0.90500000      -1.92680000       0.24430000
