16
Properties=species:S:1:pos:R:3 gdb_43254=T pbc="F F F"
O        0.03950000      -0.00430000       0.17380000
C        0.00230000       1.18970000      -0.00530000
C       -1.19030000       2.09210000       0.02960000
C       -0.76670000       3.35100000      -0.18580000
N       -0.96670000       4.40500000       0.76950000
C        0.28730000       4.09850000       1.56440000
C        1.33750000       3.49410000       0.57300000
C        1.19490000       2.11250000      -0.17120000
C        0.65120000       3.39550000      -0.73620000
H       -2.09120000       1.81850000       0.56430000
H       -0.82520000       5.31220000       0.32750000
H        0.68120000       5.02320000       1.99560000
H        0.01720000       3.41570000       2.37290000
H        2.36320000       3.83690000       0.66680000
H        2.12770000       1.67700000      -0.51450000
H        0.92700000       3.83320000      -1.68770000
