19
Properties=species:S:1:pos:R:3 gdb_102864=T pbc="F F F"
C       -1.10920000       0.87430000       0.18800000
O        0.15680000       0.28800000      -0.04130000
C        0.70410000      -0.44010000       1.04370000
C        0.11110000      -1.85960000       1.16060000
C       -1.28740000      -1.91860000       1.73490000
O       -2.19650000      -2.55910000       1.27460000
C        2.21890000      -0.49380000       0.79370000
C        2.86290000       0.87800000       0.80810000
O        3.88240000       1.13660000       1.39540000
H       -1.10300000       1.50990000       1.08610000
H       -1.33160000       1.49570000      -0.68240000
H       -1.90580000       0.12590000       0.29150000
H        0.51220000       0.10230000       1.98670000
H        0.12940000      -2.36400000       0.19050000
H        0.74380000      -2.42950000       1.85690000
H       -1.42020000      -1.32610000       2.67190000
H        2.72620000      -1.12350000       1.52880000
H        2.37540000      -0.92950000      -0.20290000
H        2.31880000       1.64830000       0.22230000
