18
Properties=species:S:1:pos:R:3 gdb_6035=T pbc="F F F"
C       -0.01010000       1.63630000       0.02680000
C       -0.06610000       0.10450000       0.08830000
N        0.52910000      -0.46290000       1.31180000
C       -1.52630000      -0.41440000      -0.00350000
N       -2.28080000      -0.06890000       1.20400000
H       -3.09560000      -0.66600000       1.29000000
H       -0.20510000      -0.52100000       2.01570000
H       -2.62540000       0.88400000       1.15400000
C        0.66550000      -0.49190000      -1.13990000
O        1.40940000      -1.56360000      -0.84740000
O        0.53780000      -0.05800000      -2.25570000
H        1.02130000       1.98900000       0.13580000
H       -0.37960000       1.99330000      -0.93660000
H       -0.60170000       2.07970000       0.83390000
H        1.33110000      -1.64790000       0.13320000
H        1.25100000       0.15090000       1.67680000
H       -1.96040000      -0.04100000      -0.94010000
H       -1.49420000      -1.50730000      -0.07040000
