19
Properties=species:S:1:pos:R:3 gdb_26272=T pbc="F F F"
C       -0.22040000       1.59260000      -0.12050000
C        0.01290000       0.07390000      -0.03770000
C       -1.29880000      -0.67970000       0.24450000
C        0.69770000      -0.45120000      -1.28380000
N        1.90990000      -1.00130000      -1.12760000
C        2.51060000      -1.46280000      -2.22580000
N        2.04520000      -1.44240000      -3.47400000
C        0.83520000      -0.89170000      -3.61930000
C        0.11410000      -0.37820000      -2.55230000
H        0.71680000       2.13000000      -0.29300000
H       -0.91110000       1.84990000      -0.93110000
H       -0.65560000       1.96010000       0.81420000
H        0.70990000      -0.12520000       0.78230000
H       -2.03470000      -0.51780000      -0.55070000
H       -1.12770000      -1.75670000       0.33120000
H       -1.74220000      -0.32950000       1.18200000
H        3.49390000      -1.90650000      -2.08370000
H        0.43370000      -0.86360000      -4.63010000
H       -0.86480000       0.06210000      -2.70270000
