14
Properties=species:S:1:pos:R:3 gdb_86861=T pbc="F F F"
O        0.35790000       0.91560000       0.70630000
C       -0.14500000      -0.18740000       0.00850000
C       -1.62890000      -0.07440000      -0.33710000
C       -1.70830000      -0.92120000      -1.63010000
O       -0.42070000      -0.78750000      -2.26690000
C        0.49520000      -0.31900000      -1.37290000
O        1.61610000      -0.03070000      -1.66780000
C       -1.98620000      -2.34140000      -1.36470000
N       -2.22350000      -3.44920000      -1.14020000
H        1.27520000       1.02920000       0.41980000
H        0.04540000      -1.13160000       0.54760000
H       -2.30350000      -0.43360000       0.43920000
H       -1.86320000       0.96830000      -0.56630000
H       -2.45490000      -0.54630000      -2.33350000
