15
Properties=species:S:1:pos:R:3 gdb_50190=T pbc="F F F"
N        0.15630000       1.08970000       0.59950000
C        0.07130000      -0.04200000       0.05260000
N        0.96190000      -0.99060000      -0.48320000
C       -0.06570000      -1.98360000      -0.76630000
C       -0.57100000      -2.82740000       0.44920000
O       -1.46210000      -1.78710000       0.86100000
C       -1.11980000      -0.95240000      -0.26600000
C       -1.27240000      -4.10110000       0.02650000
O       -2.45780000      -4.22170000      -0.11810000
H        1.12550000       1.38490000       0.73140000
H        1.91140000      -1.17020000      -0.18460000
H       -0.02880000      -2.44720000      -1.75130000
H        0.19890000      -3.06410000       1.19740000
H       -1.98510000      -0.57410000      -0.80740000
H       -0.56140000      -4.93620000      -0.18350000
