10
Properties=species:S:1:pos:R:3 gdb_21976=T pbc="F F F"
O       -0.05260000       0.00240000       0.00420000
N       -0.03220000       1.22700000       0.00830000
O        0.95390000       1.94370000       0.00330000
C       -1.32800000       1.86970000       0.01910000
C       -2.57400000       1.33190000       0.02620000
C       -3.39180000       2.49020000       0.03530000
N       -2.68410000       3.59850000       0.03330000
O       -1.35610000       3.20160000       0.02310000
H       -2.84360000       0.29080000       0.02520000
H       -4.47010000       2.55930000       0.04300000
