13
Properties=species:S:1:pos:R:3 gdb_26058=T pbc="F F F"
O       -0.23360000       1.35380000       0.07270000
C        0.00630000      -0.03910000      -0.00760000
C        0.79170000      -0.37250000      -1.22000000
N        1.41150000      -0.61260000      -2.16460000
C        0.64830000      -0.60290000       1.21720000
C        0.27140000      -1.47030000       2.18660000
N        1.29180000      -1.58520000       3.12150000
C        2.21330000      -0.79460000       2.68100000
O        1.90780000      -0.15710000       1.52660000
H        0.61550000       1.79620000       0.19280000
H       -0.97840000      -0.50670000      -0.10830000
H       -0.65210000      -2.01940000       2.28000000
H        3.17960000      -0.58180000       3.11010000
