19
Properties=species:S:1:pos:R:3 gdb_97771=T pbc="F F F"
C       -0.43420000       1.51310000       0.28130000
C       -0.06700000       0.05860000       0.09720000
C       -1.10330000      -0.80370000      -0.59080000
O        1.28170000      -0.18440000      -0.31650000
C        0.90610000      -0.59550000       1.01250000
C        1.51690000       0.08080000       2.12360000
C        2.03760000       0.62480000       3.06550000
C        2.62050000       1.29840000       4.22470000
O        1.84760000       2.39390000       4.69520000
H        0.35350000       2.05290000       0.80900000
H       -0.58910000       1.98490000      -0.69490000
H       -1.36570000       1.60610000       0.84980000
H       -1.32280000      -0.40610000      -1.58760000
H       -0.74490000      -1.82960000      -0.70480000
H       -2.03910000      -0.81820000      -0.02230000
H        0.82570000      -1.67710000       1.12600000
H        2.79740000       0.55860000       5.02180000
H        3.59840000       1.71590000       3.96030000
H        0.95150000       2.07300000       4.84110000
