20
Properties=species:S:1:pos:R:3 gdb_9259=T pbc="F F F"
C       -0.07740000       1.58560000      -0.10060000
C        0.02750000       0.05620000      -0.02430000
C        0.72590000      -0.49880000      -1.26810000
O       -0.04470000      -0.15280000      -2.41010000
C        0.75000000      -0.43820000       1.23900000
C        0.01040000      -0.10550000       2.55180000
C        0.67640000      -0.65620000       3.72600000
C        1.24600000      -1.12210000       4.67670000
H        0.91510000       2.04720000      -0.02490000
H       -0.51700000       1.88450000      -1.05450000
H       -0.69840000       1.99530000       0.70130000
H       -0.98960000      -0.36140000      -0.02750000
H        1.74460000      -0.08080000      -1.33430000
H        0.82470000      -1.59240000      -1.17780000
H        0.43410000      -0.43510000      -3.19430000
H        0.87880000      -1.52570000       1.18660000
H        1.75910000      -0.00930000       1.28370000
H       -0.08160000       0.98080000       2.66730000
H       -1.01570000      -0.49350000       2.49880000
H        1.73910000      -1.52820000       5.52450000
