15
Properties=species:S:1:pos:R:3 gdb_43779=T pbc="F F F"
N       -0.02410000       1.20530000      -0.02370000
C       -0.05360000      -0.04920000      -0.00730000
O        1.04090000      -0.90790000      -0.02370000
C        0.38420000      -2.20840000       0.00900000
C       -0.74870000      -2.03770000      -1.03870000
C       -1.22620000      -0.99610000       0.03380000
C       -0.69540000      -2.01070000       1.10700000
C        1.34890000      -3.28680000      -0.00150000
N        2.07620000      -4.18380000      -0.00810000
H        0.93670000       1.55180000      -0.05190000
H       -0.45060000      -1.67550000      -2.02340000
H       -1.40130000      -2.90790000      -1.10800000
H       -2.22020000      -0.56220000       0.05300000
H       -1.34320000      -2.87860000       1.23040000
H       -0.34900000      -1.62420000       2.06630000
