16
Properties=species:S:1:pos:R:3 gdb_77665=T pbc="F F F"
O        0.00300000       1.41850000      -0.02600000
C        0.01630000       0.03570000       0.06360000
C       -0.32990000      -0.73550000       1.28590000
O        0.54370000      -1.65320000       1.79490000
C       -1.52110000      -0.12170000       2.02060000
N       -2.26530000       0.06920000       0.73540000
C       -1.28740000      -0.73490000      -0.00730000
C       -1.67290000      -1.79180000      -0.92580000
O       -2.82790000      -2.11730000      -1.11660000
H       -0.92600000       1.67800000       0.07970000
H        0.83520000      -0.41320000      -0.49430000
H        0.05120000      -2.33390000       2.26960000
H       -2.00420000      -0.85110000       2.68090000
H       -1.32960000       0.80140000       2.57790000
H       -3.17280000      -0.38540000       0.72350000
H       -0.82730000      -2.30620000      -1.43030000
