17
Properties=species:S:1:pos:R:3 gdb_82865=T pbc="F F F"
O        0.12010000       1.38890000       0.13390000
C       -0.00620000      -0.00780000       0.03100000
C       -1.45850000      -0.56310000      -0.15300000
C       -2.21520000       0.27560000      -1.21080000
C       -1.38020000      -0.46080000      -2.27850000
O       -0.03650000       0.05940000      -2.34830000
C        0.63550000      -0.57900000      -1.25350000
O        0.20920000      -1.91780000      -1.28030000
C       -1.17900000      -1.64000000      -1.26170000
H        0.03570000       1.73720000      -0.76310000
H        0.46280000      -0.44100000       0.91820000
H       -1.95350000      -0.83690000       0.77730000
H       -3.27160000      -0.00180000      -1.27410000
H       -2.13110000       1.36280000      -1.15660000
H       -1.75410000      -0.60540000      -3.29210000
H        1.71350000      -0.48880000      -1.37690000
H       -1.77840000      -2.54300000      -1.33480000
