15
Properties=species:S:1:pos:R:3 gdb_105305=T pbc="F F F"
O       -0.09690000       1.34400000      -0.86130000
C        0.00420000       0.02990000      -0.36510000
C       -1.34950000      -0.53760000       0.03570000
O       -2.14170000      -1.22700000      -0.93310000
C       -1.63330000      -2.00370000       0.14160000
C       -0.57530000      -3.01380000      -0.19190000
O       -0.32650000      -3.94760000       0.52380000
C       -2.18330000       0.31940000       0.94770000
O       -1.77450000       1.32580000       1.47170000
H       -0.36980000       1.89910000      -0.12040000
H        0.43050000      -0.57890000      -1.16600000
H        0.67620000      -0.03460000       0.50420000
H       -2.36190000      -2.34390000       0.87820000
H       -0.05760000      -2.84130000      -1.15810000
H       -3.22120000      -0.04760000       1.09170000
