19
Properties=species:S:1:pos:R:3 gdb_106329=T pbc="F F F"
C       -0.27260000       1.31190000       0.05060000
O        0.18270000      -0.02480000      -0.10030000
C        0.76680000      -0.52890000       1.03920000
C        2.22040000      -0.27300000       1.46000000
C        2.32900000      -1.79450000       1.81990000
O        2.58600000      -2.14780000       3.17790000
C        0.87570000      -2.01850000       1.42670000
C       -0.01530000      -1.07490000       2.19750000
O        0.18740000      -0.71600000       3.53150000
H        0.55760000       2.00150000       0.25820000
H       -0.74180000       1.59620000      -0.89370000
H       -1.00720000       1.39480000       0.86270000
H        2.86550000       0.00260000       0.62330000
H        2.36060000       0.42320000       2.29160000
H        3.02670000      -2.31640000       1.15520000
H        3.48040000      -1.87030000       3.40250000
H        0.49430000      -2.90590000       0.93640000
H       -1.06980000      -1.20740000       1.96260000
H        0.95740000      -1.21150000       3.84350000
