23
Properties=species:S:1:pos:R:3 gdb_99024=T pbc="F F F"
C        0.16450000       1.54230000      -0.31850000
C       -0.10420000       0.04490000      -0.44160000
C       -1.47700000      -0.38040000       0.05210000
O       -2.31080000       0.44210000       0.38250000
C       -1.73690000      -1.87860000       0.13300000
C       -3.22900000      -2.29290000       0.09130000
C       -3.86700000      -1.91160000      -1.25710000
C       -3.34830000      -3.80030000       0.32740000
O       -3.92980000      -1.67510000       1.16350000
H        1.15570000       1.78950000      -0.70800000
H       -0.58070000       2.11780000      -0.87260000
H        0.11370000       1.86450000       0.72500000
H       -0.02490000      -0.28740000      -1.48710000
H        0.64770000      -0.54800000       0.09700000
H       -1.16330000      -2.39070000      -0.64860000
H       -1.31100000      -2.20950000       1.09130000
H       -3.37040000      -2.41450000      -2.09460000
H       -4.92080000      -2.20300000      -1.25650000
H       -3.81550000      -0.83200000      -1.42380000
H       -2.91540000      -4.07020000       1.29500000
H       -4.40320000      -4.08850000       0.33700000
H       -2.83950000      -4.36870000      -0.45730000
H       -3.74900000      -0.72680000       1.08540000
