20
Properties=species:S:1:pos:R:3 gdb_95986=T pbc="F F F"
C        0.46920000       1.36120000      -0.60660000
C       -0.03800000       0.14270000       0.16770000
O       -0.35510000      -0.94180000      -0.69500000
C        0.82490000      -1.71130000      -0.92510000
C        1.77800000      -1.44630000       0.26450000
C        0.98640000      -0.47980000       1.16400000
C        1.86430000       0.55020000       1.86760000
N        1.34380000       1.03910000       3.03180000
O        2.92180000       0.94780000       1.41520000
H        1.44200000       1.17600000      -1.06940000
H       -0.25140000       1.61040000      -1.39020000
H        0.57760000       2.22650000       0.05400000
H       -0.97000000       0.40590000       0.68030000
H        0.51860000      -2.75900000      -1.00290000
H        1.29160000      -1.42680000      -1.87810000
H        2.04270000      -2.36410000       0.79410000
H        2.70450000      -0.96330000      -0.05130000
H        0.41250000      -1.04320000       1.90750000
H        0.51780000       0.65360000       3.45410000
H        1.88430000       1.71250000       3.54990000
