16
Properties=species:S:1:pos:R:3 gdb_54495=T pbc="F F F"
N        0.01400000       1.20300000      -0.47760000
C        0.02600000       0.01430000       0.17820000
O        0.97110000      -0.41600000       0.81590000
C       -1.25470000      -0.74470000       0.03900000
C       -1.69980000      -1.70180000       1.14650000
C       -1.46810000      -2.29160000      -0.18190000
C       -2.67230000      -2.02170000      -1.10070000
C       -2.34500000      -0.51680000      -0.94960000
O       -2.64890000       0.45560000      -1.59440000
H        0.84020000       1.77720000      -0.45130000
H       -0.79970000       1.49550000      -1.00000000
H       -0.91090000      -1.83640000       1.87900000
H       -2.70650000      -1.61830000       1.54630000
H       -0.65920000      -2.97710000      -0.39350000
H       -2.54130000      -2.33430000      -2.13980000
H       -3.64280000      -2.37070000      -0.73710000
