15
Properties=species:S:1:pos:R:3 gdb_84063=T pbc="F F F"
C       -0.06580000       1.57280000       0.00640000
C        0.02810000       0.04420000      -0.01040000
N        0.76200000      -0.44920000      -1.19190000
C        1.77450000      -1.16580000      -0.83940000
N        2.68240000      -1.73070000      -1.66810000
C        1.92550000      -1.34330000       0.63710000
O        2.74820000      -1.99680000       1.22570000
C        0.75540000      -0.51220000       1.21020000
O        0.51230000      -0.35400000       2.37570000
H        0.93110000       2.02330000       0.03690000
H       -0.57070000       1.92290000      -0.89720000
H       -0.62620000       1.90500000       0.88420000
H       -0.99080000      -0.36670000      -0.02990000
H        2.49250000      -1.76590000      -2.65590000
H        3.30830000      -2.41360000      -1.27370000
