18
Properties=species:S:1:pos:R:3 gdb_86588=T pbc="F F F"
N       -0.22520000       1.69990000       0.19060000
H        0.70160000       1.22180000       0.23150000
H       -0.08280000       2.71060000       0.19560000
H       -0.73630000       1.43840000      -0.65170000
C       -0.90260000       1.19720000       1.45740000
C       -1.41450000      -0.25390000       1.38650000
C       -0.71300000      -0.48510000       2.76280000
C        0.16640000       0.75550000       2.49200000
O        1.38390000       0.50260000       1.75400000
C       -1.70180000      -0.14690000       3.96170000
O       -2.32310000       0.92840000       3.76160000
O       -1.70840000      -0.94500000       4.89770000
H       -1.62850000       1.90700000       1.83770000
H       -2.49750000      -0.36840000       1.36730000
H       -0.95800000      -0.81470000       0.56080000
H       -0.18790000      -1.43130000       2.91730000
H        0.37920000       1.43100000       3.32120000
H        1.66620000      -0.39760000       1.94420000
