15
Properties=species:S:1:pos:R:3 gdb_67926=T pbc="F F F"
O       -0.11110000       1.40810000      -0.04760000
C       -0.00630000       0.03690000      -0.05000000
C        0.71600000      -0.78730000      -1.13190000
C       -0.51130000      -1.73880000      -1.10270000
O       -0.84530000      -2.66390000      -1.78260000
C       -1.19540000      -0.93370000      -0.03020000
C       -0.24430000      -0.79020000       1.18480000
C        0.62290000      -1.83530000       1.64810000
C        1.36210000      -2.70170000       2.03470000
H        0.69590000       1.77810000       0.32880000
H        0.75160000      -0.25940000      -2.08920000
H        1.69520000      -1.20720000      -0.89160000
H       -2.25660000      -0.76170000       0.09950000
H       -0.73160000      -0.21370000       1.96820000
H        2.00510000      -3.47510000       2.37560000
