18
Properties=species:S:1:pos:R:3 gdb_126531=T pbc="F F F"
C        0.06500000       1.56640000      -0.05010000
C        0.23490000       0.04640000      -0.07960000
C        0.54550000      -0.54110000       1.31130000
C        0.68130000      -2.03810000       1.27880000
C        1.91890000      -2.69020000       1.18680000
N        2.00390000      -4.01020000       1.12870000
C        0.82510000      -4.64220000       1.16370000
N       -0.37770000      -4.08010000       1.25580000
N       -0.44680000      -2.75330000       1.31570000
H        0.97450000       2.06250000       0.30670000
H       -0.15810000       1.95700000      -1.04740000
H       -0.75490000       1.85930000       0.61460000
H       -0.67700000      -0.42840000      -0.45910000
H        1.03890000      -0.22620000      -0.77500000
H        1.46790000      -0.09640000       1.70330000
H       -0.26520000      -0.28290000       2.00040000
H        2.84930000      -2.12530000       1.16670000
H        0.83750000      -5.72720000       1.11700000
