21
Properties=species:S:1:pos:R:3 gdb_96024=T pbc="F F F"
C       -0.10520000       1.46280000       0.01600000
C        0.01680000      -0.05370000      -0.09280000
C        0.85880000      -0.52610000      -1.29520000
C        1.53000000      -1.84760000      -0.83440000
C        1.08010000      -2.01800000       0.62800000
N        0.73120000      -0.65740000       1.04520000
C        0.08460000      -0.56880000       2.33620000
C       -1.23880000      -1.23890000       2.41410000
N       -2.26590000      -1.76960000       2.42370000
H        0.88070000       1.91500000       0.16430000
H       -0.53920000       1.86970000      -0.90250000
H       -0.75590000       1.76950000       0.84130000
H       -0.99730000      -0.48720000      -0.17630000
H        0.23700000      -0.65380000      -2.18440000
H        1.61610000       0.22690000      -1.53290000
H        1.22880000      -2.70430000      -1.44120000
H        2.61780000      -1.77010000      -0.89900000
H        0.21020000      -2.69570000       0.68620000
H        1.86070000      -2.42560000       1.27910000
H        0.73410000      -1.01650000       3.09670000
H       -0.05210000       0.48040000       2.61620000
