23
Properties=species:S:1:pos:R:3 gdb_104988=T pbc="F F F"
C        0.04820000       1.24690000      -0.60360000
O       -0.12390000      -0.08060000      -0.16340000
C       -1.43060000      -0.55360000       0.11520000
C       -2.26630000       0.13590000       1.15560000
C       -2.64840000       0.21530000      -0.31390000
C       -1.34850000      -2.08940000       0.02880000
C       -0.44320000      -2.61250000       1.16010000
C       -2.70730000      -2.78760000       0.07020000
O       -0.78660000      -2.43040000      -1.23850000
H        1.12660000       1.40510000      -0.68260000
H       -0.40670000       1.41980000      -1.58790000
H       -0.35470000       1.98260000       0.10660000
H       -2.87240000      -0.46450000       1.82470000
H       -1.86300000       1.03290000       1.61390000
H       -2.51960000       1.17160000      -0.80600000
H       -3.51390000      -0.33690000      -0.65800000
H       -0.89600000      -2.44420000       2.14270000
H       -0.28000000      -3.68550000       1.02840000
H        0.52470000      -2.10580000       1.14110000
H       -3.31160000      -2.51440000      -0.79750000
H       -2.54730000      -3.86850000       0.03400000
H       -3.26120000      -2.55930000       0.98460000
H       -0.03350000      -1.83710000      -1.35080000
