21
Properties=species:S:1:pos:R:3 gdb_80143=T pbc="F F F"
C       -0.04230000       1.51100000      -0.00300000
C        0.00950000      -0.00410000      -0.01790000
C       -1.27050000      -0.66330000      -0.51640000
C       -1.34320000      -2.19750000      -0.36840000
C       -0.74120000      -2.69130000       0.92110000
C        0.16710000      -1.99140000       1.61270000
C        0.70640000      -0.69350000       1.15450000
C        1.35720000      -0.63940000      -0.23330000
O        1.54040000      -1.79970000      -0.98290000
H        0.89540000       1.94030000       0.36440000
H       -0.21820000       1.90890000      -1.00960000
H       -0.84940000       1.87250000       0.64520000
H       -2.09850000      -0.22020000       0.05280000
H       -1.43920000      -0.39100000      -1.56500000
H       -2.38980000      -2.51770000      -0.43450000
H       -0.83200000      -2.66810000      -1.21690000
H       -1.07430000      -3.65640000       1.29390000
H        0.56630000      -2.39170000       2.54110000
H        1.15600000      -0.06810000       1.91990000
H        2.19970000       0.04090000      -0.34190000
H        1.34870000      -2.55280000      -0.40790000
