13
Properties=species:S:1:pos:R:3 gdb_4900=T pbc="F F F"
O        0.00280000       1.42260000       0.00710000
C        0.01850000       0.01050000       0.00180000
C       -1.39680000      -0.45460000       0.01260000
C       -2.54540000       0.23180000       0.02400000
O       -3.61790000      -0.63980000       0.03090000
C       -3.13370000      -1.93250000       0.02300000
O       -3.81200000      -2.92250000       0.02710000
N       -1.75910000      -1.80430000       0.01210000
H        0.91150000       1.73550000      -0.00010000
H        0.53220000      -0.38990000      -0.88990000
H        0.54790000      -0.39650000       0.88120000
H       -2.75930000       1.28410000       0.02860000
H       -1.15110000      -2.60390000       0.00640000
