15
Properties=species:S:1:pos:R:3 gdb_129843=T pbc="F F F"
N        0.23690000       1.43010000       0.15250000
C        0.01900000       0.07750000       0.05500000
C       -1.11590000      -0.68450000       0.04500000
C       -0.59260000      -2.00320000       0.00450000
N       -1.26770000      -3.21210000      -0.01850000
C       -2.62500000      -3.42230000      -0.01860000
N       -3.49090000      -2.48820000       0.00090000
N        0.72580000      -2.04620000      -0.01250000
O        1.11570000      -0.68950000       0.02020000
H        1.13630000       1.72940000      -0.19690000
H       -0.52350000       2.00330000      -0.18040000
H       -2.14820000      -0.39250000       0.06700000
H       -0.66960000      -4.02300000      -0.03970000
H       -2.85150000      -4.49470000      -0.03710000
H       -4.42770000      -2.88350000      -0.00190000
