17
Properties=species:S:1:pos:R:3 gdb_123880=T pbc="F F F"
C       -0.12350000       1.55610000       0.04000000
C        1.40430000       1.52010000      -0.23150000
N        1.43320000       0.15620000       0.32310000
C       -0.03360000       0.02880000       0.30090000
C        2.29650000      -0.82070000      -0.10790000
N        3.46990000      -0.53480000      -0.68190000
N        3.99190000      -1.74680000      -0.90390000
N        3.26470000      -2.78450000      -0.53680000
C        2.16860000      -2.22730000      -0.02060000
H       -0.39270000       2.13010000       0.92780000
H       -0.75480000       1.86470000      -0.79300000
H        1.66990000       1.55220000      -1.29620000
H        2.02910000       2.23880000       0.30670000
H       -0.47130000      -0.34630000       1.23210000
H       -0.40260000      -0.58260000      -0.53510000
H        4.89600000      -1.85670000      -1.33090000
H        1.36880000      -2.82890000       0.37860000
