19
Properties=species:S:1:pos:R:3 gdb_85139=T pbc="F F F"
C       -0.13270000       1.54670000      -0.25120000
C        0.18780000       0.07180000      -0.16670000
O        1.55930000      -0.21820000      -0.63390000
C        1.90220000      -0.77240000       0.57210000
O        2.94880000      -1.24470000       0.88840000
C        0.53350000      -0.54140000       1.20330000
C        0.48070000       0.18230000       2.57550000
C        0.23540000      -1.19770000       3.24370000
C       -0.17230000      -1.75910000       1.85540000
H        0.57510000       2.13690000       0.33790000
H       -0.08780000       1.88880000      -1.28910000
H       -1.14300000       1.73670000       0.12590000
H       -0.51550000      -0.53010000      -0.75110000
H        1.36640000       0.74550000       2.87600000
H       -0.39570000       0.83400000       2.64140000
H        1.17010000      -1.64150000       3.59300000
H       -0.50400000      -1.24540000       4.04510000
H       -1.25370000      -1.71460000       1.69350000
H        0.18930000      -2.75080000       1.57580000
