18
Properties=species:S:1:pos:R:3 gdb_85668=T pbc="F F F"
C       -0.12300000       1.52570000      -0.07000000
C       -0.03550000       0.00680000      -0.08420000
O       -1.24960000      -0.59190000      -0.45820000
C        1.15800000      -0.54910000      -0.89820000
O        1.60710000       0.29400000      -1.92530000
C        1.99200000      -0.66390000       0.40680000
C        0.65460000      -0.61510000       1.20370000
C        0.60510000       0.12000000       2.45080000
N        0.55450000       0.73270000       3.43110000
H        0.83180000       1.98900000       0.18780000
H       -0.41710000       1.88180000      -1.05970000
H       -0.86070000       1.85490000       0.67070000
H       -1.97670000      -0.07250000      -0.09810000
H        0.88190000      -1.54270000      -1.27440000
H        2.19580000      -0.20220000      -2.50130000
H        2.61590000      -1.54730000       0.54730000
H        2.58910000       0.23590000       0.56700000
H        0.24850000      -1.61860000       1.35300000
