17
Properties=species:S:1:pos:R:3 gdb_48910=T pbc="F F F"
O       -0.03190000      -0.04200000       0.05720000
C        0.03610000       1.16260000       0.00550000
C        1.31200000       1.92990000       0.00340000
C        2.75530000       1.39360000       0.06260000
C        2.90830000       2.93230000      -0.00180000
C        1.75370000       3.01850000      -1.06740000
C        0.96660000       4.28800000      -0.77750000
C        0.93390000       4.34700000       0.55510000
C        1.70310000       3.10970000       0.99410000
H       -0.88190000       1.79000000      -0.04530000
H        3.05440000       0.90570000       0.99320000
H        3.09860000       0.82600000      -0.80550000
H        3.82990000       3.51990000      -0.00520000
H        1.93610000       2.69800000      -2.09360000
H        0.54890000       4.96260000      -1.51110000
H        0.48220000       5.08290000       1.20500000
H        1.83440000       2.88140000       2.05230000
