14
Properties=species:S:1:pos:R:3 gdb_14581=T pbc="F F F"
N       -0.04490000      -1.11910000      -0.00390000
C       -0.01790000       0.03570000       0.00180000
C        0.04550000       1.49370000       0.00900000
C        1.49270000       1.99710000      -0.00210000
O        1.42570000       3.40850000       0.00620000
C        2.69830000       4.01120000      -0.00260000
C        2.53750000       5.46740000       0.00700000
N        2.44180000       6.61760000       0.01430000
H       -0.48280000       1.88750000      -0.86520000
H       -0.46600000       1.87800000       0.89730000
H        2.03440000       1.62290000       0.87980000
H        2.01740000       1.63250000      -0.89800000
H        3.29160000       3.71520000       0.87750000
H        3.27480000       3.72500000      -0.89680000
