21
Properties=species:S:1:pos:R:3 gdb_94197=T pbc="F F F"
C        0.01250000       1.56880000       0.08850000
C        0.06070000       0.05130000       0.03270000
C        1.01760000      -0.64630000      -0.97440000
C        1.36470000      -1.68920000       0.12080000
C        0.79320000      -0.72480000       1.19050000
O        1.85500000       0.01220000       1.76360000
C       -0.07770000      -1.30720000       2.28150000
C        0.47740000      -1.73090000       3.57140000
O       -0.21610000      -0.47850000       3.44750000
H        1.00990000       1.97780000       0.27410000
H       -0.35490000       1.98190000      -0.85710000
H       -0.65290000       1.92120000       0.88500000
H       -0.95110000      -0.35700000      -0.07970000
H        0.58150000      -1.01720000      -1.90470000
H        1.87620000      -0.01440000      -1.21670000
H        0.77060000      -2.60390000       0.03470000
H        2.41380000      -1.95450000       0.26350000
H        1.45970000       0.52530000       2.48270000
H       -1.00980000      -1.76280000       1.94570000
H       -0.04130000      -2.48580000       4.15920000
H        1.54840000      -1.64710000       3.73710000
