14
Properties=species:S:1:pos:R:3 gdb_29331=T pbc="F F F"
O        0.09710000       1.38230000      -0.07730000
C        0.06300000       0.02110000      -0.05030000
C       -0.03490000      -0.81260000      -1.14610000
N       -0.03840000      -2.10530000      -0.69200000
C        0.05660000      -2.12680000       0.68990000
C        0.07990000      -3.28620000       1.47630000
C        0.10310000      -4.25980000       2.19130000
C        0.12050000      -0.79890000       1.09840000
O        0.22140000      -0.29220000       2.35680000
H        0.17090000       1.68750000       0.83380000
H       -0.10100000      -0.57490000      -2.19410000
H       -0.09930000      -2.92660000      -1.26510000
H        0.12260000      -5.12030000       2.81260000
H        0.24510000      -1.02540000       2.98260000
