19
Properties=species:S:1:pos:R:3 gdb_17312=T pbc="F F F"
C       -0.03450000       1.63770000       0.02960000
C        0.11980000       0.11700000       0.06850000
C        1.30080000      -0.74900000      -0.30090000
C        2.61220000      -0.38030000       0.41050000
C        2.56180000       0.74210000       1.37320000
N        2.00920000      -0.56510000       1.77750000
C        0.68200000      -0.85790000       1.08530000
C       -0.12740000      -1.93150000       1.74660000
H        0.83600000       2.13780000      -0.40100000
H       -0.89360000       1.89820000      -0.59650000
H       -0.22030000       2.06480000       1.02070000
H       -0.77370000      -0.36440000      -0.32950000
H        1.27740000      -1.45690000      -1.12070000
H        3.54630000      -0.87380000       0.16040000
H        3.48850000       0.95550000       1.90120000
H        1.92280000       1.60100000       1.24510000
H       -0.55950000      -1.56600000       2.68630000
H       -0.94740000      -2.26240000       1.10210000
H        0.49990000      -2.79570000       1.98670000
