23
Properties=species:S:1:pos:R:3 gdb_121124=T pbc="F F F"
C       -0.22920000       1.34660000      -0.42780000
O       -0.09820000      -0.03280000      -0.19230000
C        0.68380000      -0.68640000      -1.17140000
C        0.71870000      -2.17750000      -0.85660000
C       -0.70030000      -2.81980000      -0.88800000
C       -0.55910000      -4.08870000      -1.75080000
C        0.53640000      -3.72340000      -2.76080000
O        0.06190000      -2.80390000      -3.74600000
C        1.55590000      -2.96620000      -1.90380000
H        0.74630000       1.85980000      -0.41680000
H       -0.70950000       1.55360000      -1.39780000
H       -0.85210000       1.76030000       0.36950000
H        0.25820000      -0.53220000      -2.17690000
H        1.70730000      -0.27170000      -1.17890000
H        1.15980000      -2.29100000       0.13870000
H       -1.08100000      -3.03500000       0.11280000
H       -1.40610000      -2.12470000      -1.35100000
H       -0.21720000      -4.93830000      -1.14660000
H       -1.49450000      -4.39540000      -2.23330000
H        0.97580000      -4.60610000      -3.24760000
H       -0.70300000      -3.19920000      -4.17650000
H        2.18220000      -2.32110000      -2.52700000
H        2.21570000      -3.68510000      -1.40840000
