18
Properties=species:S:1:pos:R:3 gdb_22819=T pbc="F F F"
O       -0.05340000       1.34090000      -0.19500000
N        0.04230000      -0.05760000      -0.12100000
C       -1.09500000      -0.61430000       0.04820000
C       -2.41860000       0.09380000       0.17430000
C       -3.42350000      -0.69630000       0.97070000
C       -3.19920000      -1.91590000       1.45240000
C       -1.91110000      -2.66860000       1.24430000
C       -1.09460000      -2.12550000       0.06920000
O       -1.71800000      -2.61480000      -1.12230000
H        0.87010000       1.60290000      -0.27130000
H       -2.25260000       1.07870000       0.62390000
H       -2.81530000       0.30300000      -0.83070000
H       -4.37700000      -0.20700000       1.15140000
H       -3.96860000      -2.41360000       2.03670000
H       -1.30050000      -2.63340000       2.15700000
H       -2.11230000      -3.72810000       1.04900000
H       -0.05620000      -2.47380000       0.13430000
H       -1.20880000      -2.27960000      -1.86810000
