19
Properties=species:S:1:pos:R:3 gdb_32796=T pbc="F F F"
C        0.05990000       1.46750000      -0.23140000
C       -0.16130000       0.01480000       0.17570000
N        0.93670000      -0.45090000       1.02430000
C        0.99540000      -1.79990000       1.34830000
C        1.45290000      -2.41030000       2.48070000
C        1.98580000      -1.95220000       3.78660000
O        1.38200000      -3.77500000       2.25270000
C        0.87150000      -3.88880000       1.01650000
N        0.62020000      -2.76800000       0.42250000
H        1.00730000       1.58050000      -0.76600000
H       -0.75120000       1.81090000      -0.88010000
H        0.08420000       2.12860000       0.64340000
H       -1.14030000      -0.09310000       0.67220000
H       -0.18500000      -0.63070000      -0.70510000
H        1.08190000       0.14510000       1.82880000
H        1.49190000      -2.46090000       4.62220000
H        3.06500000      -2.12490000       3.88720000
H        1.81370000      -0.87800000       3.90480000
H        0.71820000      -4.88760000       0.63870000
