18
Properties=species:S:1:pos:R:3 gdb_84945=T pbc="F F F"
O        0.52200000       1.08670000       0.54330000
C        0.08820000      -0.19670000       0.08610000
C       -1.42750000      -0.27240000       0.06290000
C       -2.27360000       0.09610000      -0.90140000
C       -1.97900000       0.65710000      -2.27300000
C       -0.72140000       0.14750000      -2.96850000
O        0.48310000       0.40640000      -2.23200000
C        0.75240000      -0.51490000      -1.23360000
N        1.54550000      -1.48560000      -1.37340000
H        0.29440000       1.71560000      -0.15210000
H        0.47480000      -0.91170000       0.81370000
H       -1.85940000      -0.59970000       1.00540000
H       -3.33460000       0.03990000      -0.66500000
H       -2.82590000       0.44110000      -2.93630000
H       -1.92990000       1.75440000      -2.20890000
H       -0.79920000      -0.92950000      -3.16540000
H       -0.59320000       0.66110000      -3.92530000
H        1.91030000      -1.50520000      -2.32950000
