15
Properties=species:S:1:pos:R:3 gdb_73781=T pbc="F F F"
N        0.07300000       1.40430000       0.09700000
C       -0.03170000       0.03840000       0.02310000
C       -1.14370000      -0.75400000      -0.01970000
N       -2.46970000      -0.40690000      -0.07760000
C       -0.75470000      -2.17490000      -0.03830000
O       -1.54860000      -3.09430000      -0.05070000
C        0.76650000      -2.25720000      -0.01610000
C        1.18480000      -0.79260000       0.02060000
O        2.31300000      -0.34190000       0.02860000
H        1.02400000       1.72360000      -0.04490000
H       -0.61510000       1.94510000      -0.40670000
H       -2.75210000       0.41340000       0.43910000
H       -3.08030000      -1.20360000       0.05980000
H        1.12450000      -2.80970000       0.85910000
H        1.16430000      -2.76490000      -0.90130000
