17
Properties=species:S:1:pos:R:3 gdb_102957=T pbc="F F F"
O        0.03860000       1.48110000       0.16250000
C        0.00510000       0.07810000       0.07100000
C       -1.42290000      -0.48030000      -0.18080000
C       -1.90300000      -0.23260000      -1.62350000
O       -1.82830000       1.16240000      -1.95490000
C       -2.97920000       1.84700000      -2.14450000
O       -2.99710000       3.01780000      -2.36470000
C       -1.47990000      -1.91330000       0.08450000
C       -1.49810000      -3.10050000       0.27140000
H       -0.28020000       1.84090000      -0.67320000
H        0.67900000      -0.31060000      -0.70970000
H        0.36250000      -0.30580000       1.03010000
H       -2.09590000       0.04970000       0.50630000
H       -1.25550000      -0.75990000      -2.32960000
H       -2.92810000      -0.59640000      -1.75680000
H       -3.87330000       1.19810000      -2.08080000
H       -1.52260000      -4.14620000       0.45640000
