18
Properties=species:S:1:pos:R:3 gdb_55970=T pbc="F F F"
C        0.78290000       0.98490000       0.23670000
C       -0.31020000      -0.04380000       0.07270000
O       -1.12380000      -0.28840000       0.93280000
C       -0.33700000      -0.83210000      -1.24630000
C        0.03770000      -2.29400000      -0.99030000
C        0.09730000      -3.28110000      -2.17810000
O        1.51090000      -3.53800000      -1.90030000
C        1.51760000      -2.61420000      -0.87840000
N        2.45700000      -2.18810000      -0.16450000
H        1.74780000       0.46400000       0.20500000
H        0.77080000       1.70060000      -0.59310000
H        0.67100000       1.50780000       1.18710000
H       -1.36340000      -0.78920000      -1.62730000
H        0.32950000      -0.39160000      -1.99410000
H       -0.54030000      -2.67230000      -0.14360000
H       -0.49370000      -4.19500000      -2.08860000
H       -0.02650000      -2.83980000      -3.17080000
H        3.34530000      -2.63170000      -0.40330000
