18
Properties=species:S:1:pos:R:3 gdb_14191=T pbc="F F F"
C       -0.05920000       1.50440000       0.04800000
C       -0.01780000      -0.00290000      -0.01150000
C        0.37390000      -0.78430000      -1.30050000
C       -0.42780000      -1.93620000      -0.67630000
C       -0.01380000      -2.09050000       0.84290000
C        0.78230000      -0.79050000       1.05370000
O       -1.34880000      -1.67340000       1.26730000
C       -1.34080000      -0.92810000       0.04590000
H        0.94250000       1.93640000      -0.06220000
H       -0.68620000       1.91840000      -0.74940000
H       -0.46440000       1.84810000       1.00630000
H       -0.13230000      -0.40100000      -2.19240000
H        1.43940000      -0.91590000      -1.51240000
H       -0.78930000      -2.81480000      -1.20740000
H        0.31880000      -3.02540000       1.29190000
H        1.84740000      -0.85810000       0.81360000
H        0.65510000      -0.42490000       2.07530000
H       -2.30290000      -0.53930000      -0.28700000
