15
Properties=species:S:1:pos:R:3 gdb_21025=T pbc="F F F"
C       -0.03100000       1.45460000      -0.00260000
N       -0.06930000       0.00890000      -0.02660000
C       -0.14440000      -0.83880000      -1.09960000
N       -0.15920000      -2.08810000      -0.75060000
N       -0.09010000      -2.05650000       0.62410000
C       -0.08220000      -3.26670000       1.40750000
C       -0.03190000      -0.77780000       1.13380000
O        0.03520000      -0.40260000       2.28940000
H        0.84550000       1.83690000      -0.53450000
H       -0.93530000       1.88250000      -0.44600000
H        0.02870000       1.74930000       1.04690000
H       -0.18650000      -0.49800000      -2.12250000
H        0.78130000      -3.88830000       1.15270000
H       -0.02240000      -2.96670000       2.45500000
H       -0.99730000      -3.84270000       1.24110000
