21
Properties=species:S:1:pos:R:3 gdb_126394=T pbc="F F F"
C       -0.05240000       1.48260000       0.07260000
C       -0.05200000      -0.04720000      -0.09310000
C        0.75830000      -0.51510000      -1.26530000
N        0.16580000      -0.79190000      -2.42790000
N        1.16540000      -1.13880000      -3.26220000
C        0.86020000      -1.58580000      -4.60210000
C        2.37480000      -1.10000000      -2.64920000
C        2.16540000      -0.69440000      -1.34650000
C        3.19160000      -0.48870000      -0.27440000
H        0.96160000       1.86840000       0.21990000
H       -0.46630000       1.96500000      -0.81790000
H       -0.65470000       1.78290000       0.93620000
H        0.33100000      -0.51070000       0.82470000
H       -1.07970000      -0.40020000      -0.22330000
H        1.76240000      -1.52790000      -5.21450000
H        0.49190000      -2.61770000      -4.60440000
H        0.09150000      -0.93880000      -5.02900000
H        3.28090000      -1.36150000      -3.17470000
H        3.30650000       0.56870000      -0.00700000
H        2.92710000      -1.02200000       0.64610000
H        4.17300000      -0.85230000      -0.59280000
