21
Properties=species:S:1:pos:R:3 gdb_109553=T pbc="F F F"
C        0.12210000       1.46880000      -0.00380000
O       -0.14740000       0.08560000      -0.10000000
C        0.56700000      -0.57170000      -1.11800000
C        1.90760000      -1.24250000      -0.62890000
C        2.62350000      -0.76170000       0.62490000
C        1.10480000      -2.55290000      -0.52920000
O        1.26040000      -3.56730000       0.08810000
C       -0.04930000      -1.98720000      -1.37170000
C       -1.48380000      -2.29150000      -0.96740000
H        1.16880000       1.67430000       0.25780000
H       -0.10800000       1.98600000      -0.94770000
H       -0.52220000       1.86670000       0.78380000
H        0.65540000       0.07270000      -2.00160000
H        2.60440000      -1.32260000      -1.47340000
H        1.90390000      -0.54980000       1.41980000
H        3.29970000      -1.54310000       0.98430000
H        3.21500000       0.14000000       0.43930000
H        0.12820000      -2.26480000      -2.41890000
H       -1.68650000      -1.92790000       0.04170000
H       -2.19740000      -1.81860000      -1.64880000
H       -1.65400000      -3.37180000      -0.98760000
