19
Properties=species:S:1:pos:R:3 gdb_93205=T pbc="F F F"
C        0.03650000       1.52610000      -0.06410000
C       -0.01980000       0.02480000      -0.02810000
C       -1.15970000      -0.68070000      -0.08500000
C       -1.25140000      -2.18760000      -0.07580000
O       -2.27600000      -2.65320000      -0.94700000
C        0.05920000      -2.81850000      -0.53660000
C        1.24180000      -2.20040000       0.21390000
C        1.28770000      -0.68330000       0.08700000
O        2.33570000      -0.06850000       0.10960000
H        0.64460000       1.86760000      -0.90780000
H       -0.96290000       1.95990000      -0.14900000
H        0.51960000       1.91950000       0.83630000
H       -2.11210000      -0.15270000      -0.14180000
H       -1.46130000      -2.51870000       0.95840000
H       -3.12500000      -2.35330000      -0.60680000
H        0.02130000      -3.90210000      -0.39300000
H        0.15460000      -2.63600000      -1.61310000
H        1.16330000      -2.43230000       1.28640000
H        2.20190000      -2.59780000      -0.12400000
