21
Properties=species:S:1:pos:R:3 gdb_83369=T pbc="F F F"
C       -0.11160000       1.54410000      -0.04340000
C        0.04050000       0.02810000       0.00420000
C        1.08690000      -0.58490000      -0.93690000
O        2.31930000      -0.05650000      -0.46980000
C        2.20840000      -0.07150000       0.96650000
C        0.77730000      -0.59730000       1.22670000
C        0.23310000      -0.36480000       2.62260000
C        0.79230000      -2.06700000       0.75560000
O        1.01720000      -1.97380000      -0.66560000
H        0.85510000       2.05260000      -0.02360000
H       -0.62380000       1.84710000      -0.96250000
H       -0.71030000       1.90830000       0.79790000
H       -0.93080000      -0.45560000      -0.14390000
H        1.02150000      -0.42730000      -2.01250000
H        2.97530000      -0.72960000       1.39320000
H        2.36370000       0.94130000       1.35890000
H        0.20500000       0.70210000       2.86660000
H       -0.78360000      -0.75990000       2.72100000
H        0.85460000      -0.85880000       3.37830000
H        1.59540000      -2.65290000       1.21890000
H       -0.16510000      -2.57070000       0.94720000
