21
Properties=species:S:1:pos:R:3 gdb_104225=T pbc="F F F"
O       -0.10430000       1.43000000      -0.01220000
C       -0.00250000       0.01030000       0.09710000
C       -1.42440000      -0.53400000       0.01020000
O       -2.21570000       0.06810000       1.00700000
C       -1.99310000      -0.54780000      -1.44600000
C       -1.66810000      -2.06830000      -1.53440000
C       -1.48670000      -2.06690000      -0.01130000
C       -0.78960000      -3.04990000       0.88500000
C       -2.28790000      -2.87330000       0.96520000
H        0.73590000       1.82030000       0.24320000
H        0.62290000      -0.41010000      -0.70320000
H        0.43440000      -0.27730000       1.06410000
H       -1.93680000       0.99290000       1.04090000
H       -3.06790000      -0.35840000      -1.42290000
H       -1.52070000       0.11920000      -2.17030000
H       -2.45400000      -2.71490000      -1.93270000
H       -0.74110000      -2.27480000      -2.07910000
H       -0.40020000      -3.95800000       0.43510000
H       -0.19000000      -2.66900000       1.70610000
H       -2.69340000      -2.34840000       1.82270000
H       -2.91930000      -3.66360000       0.57130000
