18
Properties=species:S:1:pos:R:3 gdb_50728=T pbc="F F F"
N        0.95220000      -0.11110000      -0.29570000
C       -0.18940000       0.34650000       0.03610000
N       -1.31090000      -0.46890000       0.05510000
C       -1.16890000      -1.87500000      -0.33310000
C       -2.24310000      -2.72580000       0.33240000
C       -3.61870000      -2.14500000       0.02290000
N       -3.62020000      -0.73320000       0.36590000
C       -2.54880000       0.11740000       0.36430000
O       -2.66460000       1.30160000       0.62830000
H        1.64950000       0.62800000      -0.23620000
H       -0.43130000       1.36750000       0.33050000
H       -1.22920000      -1.96490000      -1.42640000
H       -0.16300000      -2.18630000      -0.04740000
H       -2.17650000      -3.75480000      -0.03170000
H       -2.08620000      -2.74070000       1.41640000
H       -3.85950000      -2.29700000      -1.04050000
H       -4.39650000      -2.64860000       0.60600000
H       -4.49280000      -0.25930000       0.53400000
