19
Properties=species:S:1:pos:R:3 gdb_69468=T pbc="F F F"
C       -0.00050000       1.49230000      -0.08470000
C       -0.06070000       0.00040000       0.03610000
C       -1.33710000      -0.86120000       0.00810000
C       -0.66120000      -1.81010000       1.05280000
O       -0.42020000      -3.15490000       0.65200000
C       -1.37710000      -4.06290000       0.92610000
N       -1.29060000      -5.23370000       0.46370000
C        0.59300000      -0.94590000       1.01790000
N        1.09100000      -0.80360000      -0.34590000
H        1.00880000       1.85060000       0.13260000
H       -0.25860000       1.81050000      -1.10160000
H       -0.70250000       1.97350000       0.60450000
H       -2.22420000      -0.36610000       0.41180000
H       -1.58410000      -1.31090000      -0.95870000
H       -1.17100000      -1.79290000       2.02270000
H       -2.17560000      -3.67410000       1.57430000
H       -2.07530000      -5.79410000       0.78960000
H        1.27420000      -0.76780000       1.84210000
H        0.86260000      -1.60880000      -0.92630000
