21
Properties=species:S:1:pos:R:3 gdb_70912=T pbc="F F F"
C       -0.01070000       1.44000000      -0.09250000
C       -0.03690000      -0.04980000       0.00000000
O        0.81880000      -0.78500000      -0.88330000
C       -0.11100000      -1.93290000      -0.80930000
C       -0.46750000      -2.44680000      -2.18070000
C        0.49690000      -2.91440000       0.19570000
C        0.61690000      -2.07190000       1.49530000
C       -0.30300000      -0.87420000       1.24830000
C       -1.12580000      -1.07840000      -0.01300000
H        0.97750000       1.82570000       0.18270000
H       -0.23310000       1.77190000      -1.11170000
H       -0.74740000       1.87930000       0.58650000
H        0.42230000      -2.83710000      -2.68500000
H       -1.20400000      -3.25460000      -2.11010000
H       -0.88530000      -1.64590000      -2.79650000
H       -0.17530000      -3.76930000       0.33580000
H        1.46080000      -3.29470000      -0.15530000
H        0.29890000      -2.63670000       2.37630000
H        1.64900000      -1.75210000       1.66700000
H       -0.75540000      -0.35150000       2.08470000
H       -2.20020000      -1.02170000      -0.12830000
