21
Properties=species:S:1:pos:R:3 gdb_98655=T pbc="F F F"
C       -0.82340000       0.90930000      -0.03020000
C        0.29450000      -0.10490000       0.14630000
C        1.48660000      -0.08600000      -0.85140000
C        2.47280000      -0.29470000       0.33220000
C        1.30460000       0.10320000       1.30870000
C        2.89860000      -1.72240000       0.54680000
O        2.25500000      -2.67950000       0.16090000
C        4.18610000      -1.96980000       1.32140000
O        4.39390000      -3.32980000       1.54990000
H       -0.42650000       1.93000000      -0.08340000
H       -1.38490000       0.72200000      -0.95230000
H       -1.53320000       0.87040000       0.80380000
H       -0.11660000      -1.11710000       0.19620000
H        1.49790000      -0.85620000      -1.62440000
H        1.62390000       0.89640000      -1.31250000
H        3.34660000       0.36120000       0.37180000
H        1.38860000       1.15300000       1.60370000
H        1.17700000      -0.50440000       2.20840000
H        5.01210000      -1.52210000       0.74050000
H        4.14020000      -1.40550000       2.26760000
H        3.66510000      -3.77170000       1.08390000
