16
Properties=species:S:1:pos:R:3 gdb_38048=T pbc="F F F"
C       -0.04290000       1.62470000       0.20840000
C        1.48020000       1.35880000       0.00500000
C        1.73150000       0.40320000       1.19960000
C        0.68970000      -0.44600000       1.19330000
C       -0.06950000       0.06670000      -0.01340000
O       -1.15850000      -0.48990000      -0.73270000
C       -0.85560000      -0.08290000      -2.01700000
N        0.28330000       0.42290000      -2.28800000
C        1.05880000       0.25360000      -1.04610000
H       -0.36080000       1.99190000       1.18490000
H       -0.50510000       2.18830000      -0.60400000
H        2.20470000       2.14800000      -0.18580000
H        2.56990000       0.44720000       1.88000000
H        0.44740000      -1.27550000       1.83970000
H       -1.66080000      -0.23840000      -2.72640000
H        1.79820000      -0.54070000      -1.18670000
