12
Properties=species:S:1:pos:R:3 gdb_1596=T pbc="F F F"
N       -0.09030000       1.36560000       0.07110000
C        0.04980000      -0.01460000       0.01050000
N        1.11170000      -0.71060000       0.06640000
C       -1.29310000      -0.75120000       0.02980000
O       -1.95350000      -0.60680000       1.27040000
C       -2.15200000      -0.28340000      -1.08470000
N       -2.81020000       0.14070000      -1.93510000
H        0.76470000       1.89780000      -0.00850000
H       -0.84770000       1.76090000      -0.47210000
H        1.94960000      -0.12470000       0.09020000
H       -1.07960000      -1.81290000      -0.10160000
H       -1.91680000       0.32550000       1.51740000
