20
Properties=species:S:1:pos:R:3 gdb_102328=T pbc="F F F"
C        0.14030000       1.54360000      -0.01350000
C        0.03220000       0.01920000      -0.06840000
C       -1.43420000      -0.52420000      -0.00100000
C       -2.19240000      -0.09380000       1.29790000
C       -1.52380000      -0.52320000       2.60480000
C       -2.19580000      -0.06730000      -1.17080000
C       -2.82090000       0.33650000      -2.11340000
C       -1.36310000      -2.00020000      -0.03690000
N       -1.28660000      -3.15320000      -0.03490000
H        1.18210000       1.84560000      -0.15380000
H       -0.45580000       2.01110000      -0.80230000
H       -0.19120000       1.94550000       0.94840000
H        0.47450000      -0.35220000      -0.99750000
H        0.59790000      -0.43490000       0.75050000
H       -2.30570000       0.99320000       1.25990000
H       -3.20110000      -0.51320000       1.23920000
H       -1.36990000      -1.60600000       2.63690000
H       -0.55490000      -0.03720000       2.75220000
H       -2.15950000      -0.25070000       3.45200000
H       -3.37550000       0.67790000      -2.95270000
