22
Properties=species:S:1:pos:R:3 gdb_87139=T pbc="F F F"
C       -0.21060000       1.58320000       0.08910000
C       -0.06430000       0.08010000       0.01290000
C        1.26770000      -0.55890000      -0.33410000
C        0.70350000      -0.68980000       1.06190000
O        1.28850000       0.12480000       2.05310000
C        0.18600000      -2.01070000       1.60050000
C       -0.48200000      -2.95820000       0.62440000
C        0.87670000      -2.59800000       2.78140000
N       -0.45330000      -1.97520000       2.93040000
H        0.66330000       2.04020000       0.55770000
H       -0.33210000       2.01160000      -0.91170000
H       -1.08850000       1.86310000       0.68130000
H       -0.93400000      -0.43100000      -0.38820000
H        1.28460000      -1.42260000      -0.98880000
H        2.11790000       0.10770000      -0.44470000
H        2.20930000      -0.13900000       2.14970000
H        0.21030000      -3.29370000      -0.15460000
H       -0.83930000      -3.83760000       1.16460000
H       -1.35030000      -2.49990000       0.14080000
H        0.89900000      -3.67770000       2.90530000
H        1.73100000      -2.07980000       3.20640000
H       -0.31700000      -1.04460000       3.32160000
