14
Properties=species:S:1:pos:R:3 gdb_133018=T pbc="F F F"
C       -0.04570000       1.43340000       0.00750000
N        0.02010000      -0.01530000       0.00270000
C       -1.05140000      -0.67860000       0.00950000
O       -2.29870000       0.01650000       0.02130000
C       -3.45650000      -0.66380000       0.02770000
C       -3.46400000      -2.00580000       0.02330000
F       -4.59470000      -2.71230000       0.02940000
C       -2.19900000      -2.68400000       0.01160000
N       -1.06970000      -2.06200000       0.00510000
H        0.96980000       1.83480000      -0.00090000
H       -0.58130000       1.82380000      -0.86870000
H       -0.56450000       1.81850000       0.89610000
H       -4.33820000      -0.03410000       0.03640000
H       -2.18970000      -3.77390000       0.00800000
