19
Properties=species:S:1:pos:R:3 gdb_69603=T pbc="F F F"
O       -0.10990000       1.38420000       0.04530000
C       -0.07060000      -0.00670000       0.00660000
C       -0.49740000      -0.76820000      -1.21990000
C       -1.33870000      -0.81520000       0.04560000
C       -1.05640000      -1.95000000       0.98310000
C       -1.90680000      -2.22890000       2.19410000
C       -1.79910000      -3.24070000       1.06090000
O        0.35240000      -2.03630000       1.10900000
C        0.88580000      -0.72440000       0.95200000
H        0.58110000       1.71940000      -0.53600000
H       -0.89990000      -0.17310000      -2.03230000
H        0.05450000      -1.65520000      -1.51450000
H       -2.30630000      -0.32990000       0.05920000
H       -1.38430000      -2.46130000       3.11520000
H       -2.83770000      -1.68540000       2.31920000
H       -2.65330000      -3.38410000       0.40820000
H       -1.21130000      -4.13290000       1.24580000
H        1.90910000      -0.83210000       0.57580000
H        0.91280000      -0.17260000       1.90440000
