21
Properties=species:S:1:pos:R:3 gdb_40920=T pbc="F F F"
C        0.16740000       1.66450000      -0.03060000
C        1.69100000       1.41240000       0.14050000
C        1.36650000      -0.02800000       0.59670000
C       -0.04530000       0.12610000      -0.02750000
C        2.25250000      -1.28020000       0.33860000
C        2.25760000      -1.60800000       1.85550000
C        3.34230000      -0.87660000       2.66390000
O        2.51900000       0.30720000       2.79770000
C        1.41600000      -0.32830000       2.11970000
H       -0.26890000       2.14030000       0.85190000
H       -0.15940000       2.21440000      -0.91590000
H        2.21700000       1.42130000      -0.81970000
H        2.24340000       2.02690000       0.85450000
H       -0.89220000      -0.27780000       0.53650000
H       -0.07870000      -0.28340000      -1.04250000
H        1.75420000      -2.03690000      -0.27460000
H        3.23850000      -1.08330000      -0.09510000
H        1.97740000      -2.61210000       2.17030000
H        3.56190000      -1.31550000       3.64570000
H        4.28730000      -0.67290000       2.14390000
H        0.48590000      -0.26830000       2.69430000
