20
Properties=species:S:1:pos:R:3 gdb_22775=T pbc="F F F"
C        0.34070000       1.26540000       0.40530000
C        0.35160000      -0.22420000       0.05010000
C        0.46550000      -0.48280000      -1.45000000
C        1.91150000      -0.31210000      -2.03030000
C        2.02900000      -1.82120000      -1.98370000
N        2.95340000      -2.66960000      -1.81030000
O        4.22160000      -2.06450000      -1.84850000
C        0.53640000      -2.01690000      -1.82820000
O        0.05020000      -2.99590000      -0.95380000
H        1.25310000       1.76710000       0.06530000
H       -0.50930000       1.77470000      -0.06200000
H        0.26460000       1.41370000       1.48690000
H        1.18350000      -0.71850000       0.57120000
H       -0.56210000      -0.70460000       0.41790000
H       -0.31260000       0.06730000      -1.98700000
H        1.93960000       0.09380000      -3.04570000
H        2.63660000       0.23050000      -1.41880000
H        4.80860000      -2.81260000      -1.69390000
H        0.04950000      -2.18250000      -2.79710000
H        0.74510000      -3.18730000      -0.31470000
