17
Properties=species:S:1:pos:R:3 gdb_6004=T pbc="F F F"
C        0.44630000       1.57860000       0.57850000
C        0.23870000       0.10220000       0.16020000
C        0.51250000      -0.82890000       1.36670000
C       -1.13030000      -0.09250000      -0.31940000
C       -2.26050000      -0.24920000      -0.70320000
C        1.31260000      -0.22240000      -0.92170000
N        0.85200000      -0.63090000      -2.12820000
O        2.49460000      -0.10400000      -0.66050000
H        1.48640000       1.71860000       0.87950000
H        0.22580000       2.25650000      -0.25050000
H       -0.21310000       1.82970000       1.41340000
H       -0.14710000      -0.57040000       2.19920000
H        0.33950000      -1.87560000       1.10230000
H        1.55320000      -0.71210000       1.67540000
H       -3.26230000      -0.38440000      -1.02960000
H       -0.13330000      -0.71800000      -2.31020000
H        1.52250000      -0.84790000      -2.84680000
