21
Properties=species:S:1:pos:R:3 gdb_120508=T pbc="F F F"
C        0.01380000       1.44910000       0.61570000
O       -0.11640000       0.06880000       0.85670000
C        0.83430000      -0.70530000       0.16050000
C        0.57260000      -2.17540000       0.49590000
O        1.44590000      -2.99070000      -0.28400000
C        2.16910000      -3.90610000       0.55120000
C        3.66640000      -3.80340000       0.26220000
C        1.76590000      -3.52600000       1.95250000
C        0.86810000      -2.54900000       1.92250000
H       -0.11320000       1.69020000      -0.45150000
H       -0.76620000       1.95750000       1.18790000
H        0.99630000       1.82950000       0.93730000
H        0.74680000      -0.55900000      -0.92840000
H        1.86200000      -0.43540000       0.45420000
H       -0.47680000      -2.39260000       0.23620000
H        1.83790000      -4.93240000       0.31610000
H        4.03860000      -2.80570000       0.51310000
H        4.22250000      -4.54280000       0.84850000
H        3.85870000      -3.99160000      -0.79780000
H        2.17450000      -4.01060000       2.83060000
H        0.38980000      -2.06150000       2.76110000
