19
Properties=species:S:1:pos:R:3 gdb_91836=T pbc="F F F"
C        0.77590000       1.44630000       0.10890000
C       -0.08330000       0.19460000      -0.11010000
C        0.42880000      -0.68100000      -1.29210000
C        1.24030000      -1.78270000      -0.64810000
O        2.18710000      -1.32170000       0.32030000
C        0.92540000      -1.84690000       0.79520000
C       -0.08160000      -0.75350000       1.12460000
C        0.97880000      -3.04760000       1.57930000
C        0.98910000      -4.03740000       2.26160000
H        1.81210000       1.17250000       0.32130000
H        0.76420000       2.08760000      -0.77930000
H        0.39670000       2.03730000       0.94960000
H       -1.10840000       0.51810000      -0.31460000
H       -0.40150000      -1.13610000      -1.84530000
H        1.01780000      -0.10000000      -2.00950000
H        1.54410000      -2.66330000      -1.20900000
H        0.17800000      -0.23150000       2.05070000
H       -1.06090000      -1.22080000       1.27580000
H        1.00970000      -4.91680000       2.85680000
