21
Properties=species:S:1:pos:R:3 gdb_98592=T pbc="F F F"
C        0.49270000       1.48610000      -0.15500000
N        0.21910000       0.06400000      -0.19140000
C       -0.63460000      -0.54610000       0.68530000
O       -1.23640000       0.07790000       1.55050000
C       -0.74890000      -2.02760000       0.46230000
C       -0.94060000      -2.98920000       1.61340000
C       -1.01340000      -2.55990000       3.06270000
N       -1.99900000      -2.77500000       0.64580000
C       -3.24150000      -2.10160000       1.01880000
H        1.55780000       1.68370000       0.01030000
H        0.18680000       1.97600000      -1.08640000
H       -0.08120000       1.90550000       0.67200000
H        0.66870000      -0.49640000      -0.89540000
H       -0.16900000      -2.38510000      -0.38940000
H       -0.45040000      -3.95460000       1.47640000
H       -1.33960000      -1.52680000       3.17150000
H       -1.69640000      -3.21630000       3.61380000
H       -0.02430000      -2.65840000       3.52240000
H       -3.12020000      -1.23360000       1.67180000
H       -3.74000000      -1.77480000       0.10060000
H       -3.88780000      -2.84000000       1.50380000
