13
Properties=species:S:1:pos:R:3 gdb_25175=T pbc="F F F"
O       -0.02620000      -0.05920000       0.00330000
C        0.01160000       1.15370000       0.00930000
N       -1.15880000       1.92130000       0.02860000
C       -1.18350000       3.28200000       0.03620000
C       -0.00430000       3.96080000       0.02440000
N        1.19580000       3.31680000       0.00530000
C        1.22580000       2.00710000      -0.00210000
C        2.47950000       1.33290000      -0.02200000
C        3.53260000       0.75050000      -0.03890000
H       -2.01590000       1.38420000       0.03700000
H       -2.15560000       3.75880000       0.05140000
H        0.01740000       5.04310000       0.02990000
H        4.46170000       0.23580000      -0.05380000
