21
Properties=species:S:1:pos:R:3 gdb_53440=T pbc="F F F"
C        0.01630000       1.51080000      -0.02550000
C       -0.00270000       0.05460000      -0.01700000
C       -0.01670000      -1.14980000      -0.01460000
C       -0.03880000      -2.61340000       0.00670000
C        0.83340000      -3.18070000       1.15140000
C        0.61520000      -4.68900000       1.30610000
C       -0.84530000      -5.00050000       1.66410000
C       -1.81210000      -4.19120000       0.83960000
C       -1.46170000      -3.14310000       0.09690000
H        0.66360000       1.90580000       0.76550000
H        0.38680000       1.90090000      -0.98020000
H       -0.98630000       1.92360000       0.13290000
H        0.38940000      -2.96440000      -0.94690000
H        1.88550000      -2.95140000       0.95590000
H        0.56260000      -2.66810000       2.08200000
H        0.87120000      -5.18920000       0.36300000
H        1.28810000      -5.09470000       2.06890000
H       -1.04960000      -6.07030000       1.52980000
H       -1.02440000      -4.80260000       2.73170000
H       -2.85560000      -4.49790000       0.86430000
H       -2.20620000      -2.60750000      -0.48510000
