19
Properties=species:S:1:pos:R:3 gdb_120242=T pbc="F F F"
C       -0.35080000       1.42560000      -0.58510000
O       -0.28280000       0.02420000      -0.70370000
C        1.00530000      -0.48790000      -0.43260000
C        0.95710000      -1.99470000      -0.58540000
C        0.89890000      -2.65010000      -1.97730000
C        2.15670000      -2.40200000      -2.72750000
C        2.15880000      -3.50170000      -1.66910000
C        2.22160000      -2.86500000      -0.31360000
O        2.87650000      -3.05540000       0.67180000
H       -0.09540000       1.76260000       0.43200000
H        0.32740000       1.92940000      -1.29220000
H       -1.37800000       1.72360000      -0.80840000
H        1.74660000      -0.03910000      -1.11490000
H        1.31930000      -0.23680000       0.59440000
H        0.15980000      -2.38310000       0.05990000
H       -0.00710000      -2.99870000      -2.45360000
H        2.19370000      -2.77900000      -3.74430000
H        2.73580000      -1.49610000      -2.57550000
H        2.40420000      -4.52560000      -1.92090000
