17
Properties=species:S:1:pos:R:3 gdb_6110=T pbc="F F F"
C        0.01260000       1.50410000       0.01550000
C       -0.03630000      -0.01990000       0.03560000
C       -1.42970000      -0.56570000      -0.25670000
N        1.02650000      -0.65410000      -0.79130000
C        1.78860000      -1.08610000       0.25730000
O        2.90090000      -1.53870000       0.35920000
C        0.69920000      -0.66870000       1.27060000
O        1.12530000       0.19680000       2.28840000
H        1.01290000       1.86790000       0.25660000
H       -0.27410000       1.88380000      -0.97150000
H       -0.68220000       1.91730000       0.75230000
H       -1.77360000      -0.25190000      -1.24840000
H       -1.43670000      -1.65910000      -0.22630000
H       -2.14980000      -0.19300000       0.47860000
H        1.26350000      -0.53900000      -1.76740000
H        0.13820000      -1.52000000       1.67900000
H        2.05670000       0.00600000       2.45120000
