15
Properties=species:S:1:pos:R:3 gdb_54288=T pbc="F F F"
N        0.42440000       0.69450000       1.04610000
C        0.15530000       0.01030000      -0.09340000
O        0.91780000      -0.12800000      -1.02980000
C       -1.21690000      -0.64870000      -0.10890000
C       -1.85220000      -0.73730000      -1.48780000
C       -2.27600000       0.57260000      -1.98380000
N       -2.61510000       1.60810000      -2.36650000
C       -1.52440000      -1.65910000       0.91920000
O       -2.08320000      -0.34360000       0.98420000
H        1.27990000       1.22370000       1.09200000
H       -0.32990000       0.90900000       1.67830000
H       -1.11100000      -1.15350000      -2.17650000
H       -2.71920000      -1.40330000      -1.46050000
H       -2.23200000      -2.45370000       0.68960000
H       -0.78140000      -1.88980000       1.67930000
