15
Properties=species:S:1:pos:R:3 gdb_112250=T pbc="F F F"
O        0.00890000       1.31920000      -0.08470000
C        0.07250000      -0.08950000       0.01930000
C       -1.31440000      -0.65020000       0.27570000
O       -2.17850000      -0.40040000      -0.90580000
C       -2.42600000      -1.72980000      -1.08830000
O       -3.06210000      -2.25810000      -1.93890000
C       -1.61070000      -2.15800000       0.15030000
C       -0.52610000      -3.18500000      -0.07250000
O        0.64700000      -2.99900000       0.11850000
H       -0.53770000       1.52670000      -0.85110000
H        0.50920000      -0.55150000      -0.87540000
H        0.72600000      -0.32490000       0.86290000
H       -1.76420000      -0.16620000       1.14530000
H       -2.28770000      -2.54520000       0.92070000
H       -0.91260000      -4.16140000      -0.43400000
