17
Properties=species:S:1:pos:R:3 gdb_83679=T pbc="F F F"
O        0.26830000       1.23010000       0.42080000
C        0.07280000      -0.11920000       0.10870000
C       -1.42140000      -0.48110000      -0.06260000
C       -2.38140000       0.66570000      -0.43270000
C       -2.07280000       0.33600000      -1.91790000
N       -1.22030000      -0.84360000      -1.52770000
C        0.24760000      -0.54570000      -1.40130000
C        0.82810000       0.45960000      -2.27620000
N        1.30760000       1.27370000      -2.94350000
H        1.20080000       1.44850000       0.31340000
H        0.62300000      -0.78010000       0.79070000
H       -1.79330000      -1.26830000       0.59690000
H       -3.41490000       0.48180000      -0.13480000
H       -2.07460000       1.65220000      -0.08640000
H       -2.92910000       0.01210000      -2.51470000
H       -1.53730000       1.11100000      -2.47280000
H        0.82130000      -1.47220000      -1.51150000
