17
Properties=species:S:1:pos:R:3 gdb_6112=T pbc="F F F"
C        0.26080000       1.36960000      -0.13530000
C       -0.08880000      -0.09180000       0.05740000
C       -1.55870000      -0.40830000      -0.13090000
O        0.73430000      -0.93890000      -0.86250000
C        1.44800000      -1.45530000       0.18200000
N        2.48780000      -2.15880000       0.22830000
C        0.61900000      -0.79520000       1.26030000
O        1.30940000       0.01070000       2.17700000
H        1.32680000       1.54090000       0.02400000
H       -0.00650000       1.69040000      -1.14650000
H       -0.28940000       1.98500000       0.58250000
H       -1.89240000      -0.11210000      -1.12990000
H       -1.74750000      -1.47880000      -0.00950000
H       -2.15830000       0.13530000       0.60630000
H        2.84220000      -2.37580000      -0.70470000
H       -0.05210000      -1.49270000       1.77900000
H        2.21560000      -0.31730000       2.21430000
