19
Properties=species:S:1:pos:R:3 gdb_38872=T pbc="F F F"
C       -0.00620000       1.58790000       0.02490000
C        1.52070000       1.77680000      -0.04650000
C        1.79980000       1.00370000      -1.35590000
C        1.34210000      -0.31510000      -0.71970000
O        2.34150000      -0.42600000       0.31450000
C        2.10510000       0.77570000       1.03940000
O        1.16300000       0.48880000       2.05470000
C        0.14110000      -0.35610000       1.49580000
C       -0.01740000       0.03330000       0.01560000
H       -0.46110000       1.99480000       0.92940000
H       -0.49900000       2.03250000      -0.84360000
H        1.89510000       2.79700000       0.03580000
H        1.19570000       1.36300000      -2.19300000
H        2.84880000       0.94680000      -1.65090000
H        1.34800000      -1.22790000      -1.31420000
H        3.02160000       1.10650000       1.52900000
H        0.41470000      -1.41060000       1.61690000
H       -0.77500000      -0.15990000       2.06100000
H       -0.89460000      -0.42720000      -0.44170000
