20
Properties=species:S:1:pos:R:3 gdb_121322=T pbc="F F F"
C       -0.10380000       1.50230000      -0.00490000
C        0.11710000       0.00180000       0.06440000
O        0.58290000      -0.43270000      -1.21160000
C        0.79090000      -1.81330000      -1.32600000
C        0.91690000      -2.25180000      -2.79420000
N        1.74920000      -3.46800000      -2.79640000
C        2.75020000      -3.26960000      -1.73990000
C        2.13320000      -2.29790000      -0.72640000
O        2.61460000      -1.94380000       0.31890000
H        0.83400000       2.01750000      -0.23130000
H       -0.82950000       1.75160000      -0.78450000
H       -0.47980000       1.87370000       0.95310000
H        0.84800000      -0.25440000       0.83920000
H       -0.82510000      -0.51980000       0.30460000
H       -0.02060000      -2.38090000      -0.83360000
H       -0.04360000      -2.44050000      -3.27630000
H        1.42380000      -1.45440000      -3.35170000
H        1.16820000      -4.26500000      -2.55840000
H        3.05710000      -4.20690000      -1.26910000
H        3.65780000      -2.80360000      -2.15020000
