14
Properties=species:S:1:pos:R:3 gdb_13156=T pbc="F F F"
O        0.07050000      -0.11110000       0.14440000
C       -0.00850000       1.08870000       0.05010000
C        1.20970000       1.92510000      -0.01580000
N        2.14070000       2.60820000      -0.07920000
C       -1.30790000       1.86220000      -0.01140000
C       -1.66120000       2.35020000      -1.45470000
C       -2.67150000       1.17540000      -1.47450000
N       -2.51300000       1.02950000      -0.00230000
H       -1.26880000       2.64470000       0.75930000
H       -2.12640000       3.33590000      -1.44960000
H       -0.85840000       2.33460000      -2.19280000
H       -3.69290000       1.41010000      -1.78700000
H       -2.31070000       0.31730000      -2.05390000
H       -2.34000000       0.08090000       0.31740000
