9
Properties=species:S:1:pos:R:3 gdb_3647=T pbc="F F F"
C        0.00180000      -1.18130000      -0.00360000
C       -0.01460000       0.02050000       0.00310000
C        0.01190000       1.43310000       0.01040000
N       -1.07140000       2.18100000       0.02810000
O       -0.63040000       3.46570000       0.02950000
N        0.73650000       3.53640000       0.01270000
C        1.14690000       2.30210000       0.00080000
H        0.00390000      -2.24380000      -0.00940000
H        2.19600000       2.05370000      -0.01380000
