19
Properties=species:S:1:pos:R:3 gdb_6284=T pbc="F F F"
C        0.00390000       1.59320000      -0.07390000
C       -0.00580000       0.06670000      -0.03470000
O        0.56750000      -0.42960000       1.17470000
C       -1.41240000      -0.51080000      -0.24680000
C       -1.43790000      -2.05500000      -0.27280000
C       -2.86880000      -2.62160000      -0.21960000
C       -0.73340000      -2.55740000      -1.45800000
N       -0.18880000      -2.94180000      -2.40270000
H        1.01530000       1.96850000       0.10260000
H       -0.34140000       1.96750000      -1.04270000
H       -0.65660000       2.00880000       0.69830000
H        0.65220000      -0.31630000      -0.82380000
H        0.12520000       0.00900000       1.91040000
H       -2.06240000      -0.17670000       0.57340000
H       -1.84290000      -0.11760000      -1.17490000
H       -0.87650000      -2.40160000       0.60260000
H       -2.86090000      -3.71420000      -0.23240000
H       -3.36310000      -2.29010000       0.69810000
H       -3.45900000      -2.27510000      -1.07290000
