14
Properties=species:S:1:pos:R:3 gdb_34138=T pbc="F F F"
N       -0.05520000      -1.11300000       0.11340000
C       -0.04820000       0.04240000       0.08070000
C       -0.00870000       1.48240000      -0.00920000
O       -0.66340000       2.28450000       1.02190000
C       -0.08930000       3.26580000       0.08650000
C        1.24190000       2.44710000      -0.04670000
C        1.69350000       2.54950000      -1.48850000
C        0.56040000       2.53640000      -2.19780000
C       -0.53740000       2.42650000      -1.16040000
H       -0.23710000       4.32390000       0.30310000
H        1.94080000       2.42080000       0.78630000
H        2.71630000       2.61060000      -1.83140000
H        0.42100000       2.58400000      -3.26810000
H       -1.59140000       2.37980000      -1.42460000
