17
Properties=species:S:1:pos:R:3 gdb_98600=T pbc="F F F"
O        0.00640000       1.37180000       0.01670000
C       -0.01110000      -0.02230000      -0.00780000
C       -1.42430000      -0.57440000       0.05050000
O       -2.36500000       0.23140000       0.11050000
C       -1.63460000      -2.00790000       0.03490000
C       -2.88870000      -2.53360000       0.82720000
O       -3.61140000      -1.69120000       1.63930000
C       -2.96080000      -2.50710000      -0.64930000
O       -3.75810000      -1.63740000      -1.35630000
H       -0.92380000       1.64180000       0.06650000
H        0.46750000      -0.41420000      -0.92110000
H        0.55280000      -0.44620000       0.84020000
H       -0.75440000      -2.63870000      -0.01950000
H       -2.72740000      -3.49360000       1.30770000
H       -3.56250000      -0.79410000       1.27240000
H       -2.84900000      -3.44900000      -1.17730000
H       -3.67020000      -0.75350000      -0.96550000
