18
Properties=species:S:1:pos:R:3 gdb_84258=T pbc="F F F"
C       -0.07260000       1.59240000      -0.02780000
C        0.02620000       0.06650000      -0.03000000
C        0.85510000      -0.53560000      -1.15820000
C        1.51670000      -1.60160000      -0.71330000
C        2.85360000      -2.30710000      -0.72490000
N        2.88150000      -2.08950000       0.77090000
C        1.40760000      -1.82620000       0.76020000
C        0.77770000      -0.49490000       1.23010000
O        0.86810000       0.04950000       2.29280000
H        0.91850000       2.04890000      -0.11320000
H       -0.68740000       1.94810000      -0.85980000
H       -0.51870000       1.93810000       0.90800000
H       -0.99150000      -0.35310000       0.00010000
H        0.97990000      -0.04000000      -2.11470000
H        2.80150000      -3.36780000      -1.00680000
H        3.67240000      -1.83000000      -1.27200000
H        3.13820000      -2.92080000       1.29450000
H        0.79190000      -2.67030000       1.10430000
