17
Properties=species:S:1:pos:R:3 gdb_51360=T pbc="F F F"
N       -0.17950000       1.15160000       0.00430000
C       -0.57350000      -0.01590000       0.27850000
O       -0.78690000      -0.89950000      -0.71700000
C       -1.06730000      -2.22750000      -0.37110000
C       -1.86820000      -2.79690000       0.77020000
C       -3.25080000      -2.14350000       1.04210000
N       -3.41030000      -0.95080000       0.17500000
C       -3.65100000      -2.31290000      -0.36430000
C       -2.30070000      -2.99320000      -0.71320000
H       -0.07870000       1.68630000       0.86470000
H       -0.77250000      -0.42800000       1.27380000
H       -0.18500000      -2.84620000      -0.54280000
H       -1.43790000      -3.52660000       1.44560000
H       -3.81610000      -2.26990000       1.95550000
H       -4.32630000      -0.55230000       0.38240000
H       -4.60390000      -2.59130000      -0.79340000
H       -2.25580000      -3.89650000      -1.30890000
