18
Properties=species:S:1:pos:R:3 gdb_52969=T pbc="F F F"
C       -0.03650000       1.44550000       0.02960000
C       -0.01890000      -0.00860000      -0.00500000
C       -0.00160000      -1.21410000      -0.02860000
C        0.03100000      -2.63320000      -0.04440000
C       -0.37580000      -3.46100000      -1.24560000
C       -1.08670000      -3.67560000       0.05500000
C       -0.21750000      -4.39370000       1.09710000
C        1.15080000      -4.73210000       0.65380000
N        0.85240000      -3.33880000       1.04410000
H        0.69340000       1.82570000       0.75290000
H        0.21060000       1.87640000      -0.94730000
H       -1.02060000       1.82830000       0.32360000
H       -0.94250000      -2.87830000      -1.96420000
H        0.26300000      -4.20730000      -1.70430000
H       -2.14620000      -3.50300000       0.18500000
H       -0.61760000      -4.71600000       2.05280000
H        1.79230000      -5.21680000       1.38480000
H        1.38410000      -4.99320000      -0.37140000
