15
Properties=species:S:1:pos:R:3 gdb_125459=T pbc="F F F"
C       -0.16870000       1.43890000       0.04550000
C       -0.00750000      -0.03830000      -0.05820000
N       -0.27630000      -0.78810000      -1.11730000
C        0.04710000      -2.03040000      -0.69050000
O       -0.08800000      -3.07410000      -1.53370000
C       -0.06810000      -4.33740000      -1.01040000
N       -0.02200000      -5.31020000      -1.80640000
N        0.50210000      -2.12730000       0.54780000
N        0.44800000      -0.82240000       0.93900000
H        0.07450000       1.79680000       1.04920000
H        0.48430000       1.94480000      -0.67170000
H       -1.19780000       1.72490000      -0.18770000
H       -0.10940000      -4.35120000       0.08060000
H       -0.04400000      -6.18330000      -1.28260000
H        0.74740000      -0.56890000       1.86610000
