23
Properties=species:S:1:pos:R:3 gdb_94713=T pbc="F F F"
C        0.12890000       1.60720000       0.02520000
C        0.01250000       0.08090000      -0.00920000
C        0.63490000      -0.52010000      -1.27790000
C        0.34690000      -2.02240000      -1.37970000
C        0.75110000      -2.78330000      -0.12880000
C        0.44670000      -4.26360000      -0.12300000
O        2.04620000      -2.43210000       0.38500000
C        0.88660000      -2.04390000       1.14180000
C        0.63080000      -0.55150000       1.25360000
H        1.17980000       1.91870000      -0.00220000
H       -0.37660000       2.06400000      -0.83220000
H       -0.31580000       2.02190000       0.93650000
H       -1.05710000      -0.17780000      -0.01960000
H        0.24060000      -0.01210000      -2.16530000
H        1.71880000      -0.35650000      -1.26810000
H       -0.72610000      -2.18580000      -1.55050000
H        0.86720000      -2.45750000      -2.24260000
H        0.93930000      -4.76030000      -0.96650000
H        0.80280000      -4.72800000       0.80010000
H       -0.63030000      -4.44280000      -0.21240000
H        0.77350000      -2.61050000       2.06780000
H        1.59110000      -0.06750000       1.47700000
H       -0.01780000      -0.36140000       2.11680000
