20
Properties=species:S:1:pos:R:3 gdb_22286=T pbc="F F F"
C       -0.47370000       1.34130000       0.16460000
C        0.27160000       0.02870000       0.04450000
C        0.86000000      -0.36360000      -1.32900000
C        2.21030000      -0.39490000      -0.59100000
O        1.60130000       0.09610000       0.63200000
C        2.87800000      -1.73000000      -0.36740000
C        3.91450000      -1.80210000       0.71810000
N        2.51950000      -2.69060000      -1.12800000
O        3.22910000      -3.87270000      -0.86920000
H        0.08740000       2.15160000      -0.31140000
H       -1.45610000       1.26700000      -0.31500000
H       -0.62660000       1.60110000       1.21690000
H       -0.30570000      -0.77950000       0.51420000
H        0.54060000      -1.31580000      -1.74760000
H        0.78360000       0.42160000      -2.08360000
H        2.96470000       0.32090000      -0.94890000
H        3.98760000      -2.81360000       1.11890000
H        4.90090000      -1.52700000       0.32460000
H        3.65890000      -1.10210000       1.51660000
H        2.82080000      -4.49090000      -1.48430000
