19
Properties=species:S:1:pos:R:3 gdb_45307=T pbc="F F F"
O       -0.01680000      -0.04750000      -0.05620000
C       -0.02620000       1.15480000      -0.00850000
C       -1.27360000       2.03310000       0.13780000
C       -0.77250000       3.42080000       0.54990000
C       -0.72370000       3.70280000       2.07760000
C        0.61640000       4.37120000       2.27270000
C        1.39080000       4.27680000       1.19300000
C        0.72360000       3.51310000       0.07470000
C        1.21630000       2.05390000      -0.08760000
H       -1.75570000       2.06060000      -0.84870000
H       -1.99060000       1.57520000       0.82390000
H       -1.35610000       4.21100000       0.07190000
H       -1.56420000       4.32400000       2.40750000
H       -0.78380000       2.77630000       2.66760000
H        0.90420000       4.83690000       3.20910000
H        2.40580000       4.65160000       1.11500000
H        0.80170000       4.03590000      -0.88430000
H        1.89970000       1.75330000       0.71400000
H        1.73890000       1.86460000      -1.03030000
