18
Properties=species:S:1:pos:R:3 gdb_6827=T pbc="F F F"
C       -0.15520000       1.51240000       0.11600000
C       -0.00690000      -0.00250000       0.00640000
O       -1.22990000      -0.61320000      -0.33970000
C        1.14840000      -0.44560000      -0.92770000
C        2.06450000      -0.65490000       0.30880000
C        0.78460000      -0.67480000       1.18780000
C        0.79200000      -0.06520000       2.55990000
O       -0.14740000       0.51110000       3.05380000
H        0.80550000       1.99930000       0.31400000
H       -0.55060000       1.90360000      -0.82640000
H       -0.83250000       1.78200000       0.93120000
H       -1.91120000      -0.26850000       0.24860000
H        0.89200000      -1.39380000      -1.40560000
H        1.47210000       0.26790000      -1.68890000
H        2.69420000      -1.54580000       0.32010000
H        2.69250000       0.21700000       0.51540000
H        0.41720000      -1.70410000       1.28750000
H        1.74740000      -0.18110000       3.12480000
