18
Properties=species:S:1:pos:R:3 gdb_61574=T pbc="F F F"
N       -0.20130000       1.61640000       0.10250000
H        0.03900000       0.74370000      -0.36270000
H        1.14770000       1.75640000       1.43420000
H       -0.73490000       2.15660000      -0.57180000
C       -1.05520000       1.33680000       1.26760000
C       -2.17060000       0.30660000       1.05210000
C       -3.31400000       0.78220000       0.17800000
C       -3.94180000       2.10440000       0.28720000
O       -3.04820000       1.80890000      -0.79300000
C       -0.16200000       0.94710000       2.46600000
O        1.10500000       1.35440000       2.33050000
O       -0.56810000       0.36880000       3.43900000
H       -1.49940000       2.29630000       1.56240000
H       -1.73040000      -0.59420000       0.60360000
H       -2.56090000      -0.00050000       2.02790000
H       -3.94250000      -0.02010000      -0.21110000
H       -4.98570000       2.22830000       0.00410000
H       -3.57680000       2.82960000       1.01230000
