25
Properties=species:S:1:pos:R:3 gdb_59985=T pbc="F F F"
C       -1.85800000       1.68650000      -1.25180000
C       -1.82930000       0.16150000      -1.36030000
O       -0.87160000      -0.26610000      -2.33110000
C       -1.59110000      -0.50830000       0.00010000
C       -1.59520000      -2.04910000      -0.02970000
C       -0.86760000      -2.60920000       1.20190000
C       -3.03880000      -2.59300000      -0.15740000
C       -3.11220000      -4.09430000      -0.44210000
O       -3.84050000      -2.24340000       0.97290000
H       -2.00260000       2.13510000      -2.23850000
H       -2.66580000       2.02180000      -0.59350000
H       -0.91390000       2.06490000      -0.83890000
H       -2.78840000      -0.17430000      -1.77190000
H       -0.00790000       0.05000000      -2.04200000
H       -0.62190000      -0.15420000       0.38180000
H       -2.34980000      -0.16580000       0.71380000
H       -1.05160000      -2.36330000      -0.92910000
H        0.16420000      -2.24610000       1.23680000
H       -1.35200000      -2.28540000       2.13100000
H       -0.82650000      -3.70280000       1.20270000
H       -3.52200000      -2.07280000      -0.99230000
H       -2.68800000      -4.68300000       0.37940000
H       -4.15440000      -4.39980000      -0.56950000
H       -2.56190000      -4.34950000      -1.35340000
H       -3.55390000      -2.78700000       1.71420000
