17
Properties=species:S:1:pos:R:3 gdb_54213=T pbc="F F F"
C       -0.02640000       1.57370000       0.05410000
C        0.13740000       0.04980000       0.00100000
C        0.90470000      -0.43840000      -1.26440000
N        1.84050000      -1.39940000      -0.67190000
H        2.67290000      -1.69520000      -1.15550000
C        1.82300000      -1.22120000       0.68140000
N        0.91910000      -0.44470000       1.16120000
C       -1.27650000      -0.57600000       0.06270000
O       -2.01670000      -0.62030000      -0.88370000
O       -1.61780000      -1.02380000       1.27720000
H        0.95470000       2.05600000       0.02450000
H       -0.62330000       1.91860000      -0.79480000
H       -0.52740000       1.87350000       0.97860000
H        0.23340000      -0.90310000      -1.98930000
H        1.43770000       0.38690000      -1.75270000
H        2.53340000      -1.76110000       1.30090000
H       -0.81180000      -0.93910000       1.82870000
