16
Properties=species:S:1:pos:R:3 gdb_124281=T pbc="F F F"
C       -0.08120000       1.52200000      -0.07160000
C        0.02970000       0.01210000      -0.05820000
O        1.09900000      -0.56570000      -0.09720000
C       -1.22610000      -0.76220000       0.00490000
N       -2.43560000      -0.18430000       0.05000000
N       -3.25540000      -1.21100000       0.09740000
N       -2.70220000      -2.42480000       0.08800000
C       -1.39500000      -2.17190000       0.02880000
C       -0.37420000      -3.25730000      -0.00220000
H        0.91870000       1.95390000      -0.11960000
H       -0.67710000       1.85300000      -0.92800000
H       -0.60210000       1.87400000       0.82450000
H       -4.25530000      -1.09000000       0.13890000
H        0.23850000      -3.18830000      -0.90520000
H        0.31350000      -3.16770000       0.84330000
H       -0.86470000      -4.23200000       0.03040000
