21
Properties=species:S:1:pos:R:3 gdb_42075=T pbc="F F F"
C        0.04730000       1.73090000      -0.18650000
C        1.43560000       2.32860000       0.11900000
C        2.03340000       2.00010000       1.51350000
C        2.38950000       0.58550000       1.52930000
C        2.47630000      -0.56900000       1.19860000
C        2.30080000      -1.81530000       0.45950000
C        1.60370000      -1.52440000      -0.87040000
C        0.62180000      -0.64810000      -1.09980000
C       -0.15520000       0.19340000      -0.11450000
H       -0.68360000       2.17980000       0.49940000
H       -0.23860000       2.07220000      -1.19040000
H        2.15460000       1.99920000      -0.63890000
H        1.35430000       3.41900000       0.02510000
H        2.90660000       2.63810000       1.69660000
H        1.31030000       2.23650000       2.30550000
H        3.26430000      -2.29850000       0.25860000
H        1.72620000      -2.54560000       1.04760000
H        1.98810000      -2.09290000      -1.71430000
H        0.28750000      -0.55280000      -2.13320000
H        0.00840000      -0.15350000       0.90560000
H       -1.22030000       0.02150000      -0.32740000
