17
Properties=species:S:1:pos:R:3 gdb_109048=T pbc="F F F"
O        0.15780000       1.38520000       0.00630000
C        0.01720000      -0.01460000       0.16690000
C       -1.40180000      -0.49230000       0.16110000
C       -2.51300000       0.25060000       0.13490000
C       -3.71890000      -0.62290000       0.00910000
O       -3.72790000      -1.41740000      -1.21440000
C       -3.25100000      -2.01000000       0.00150000
C       -1.71990000      -1.98930000       0.06620000
O       -1.12280000      -2.59750000      -1.06900000
H       -0.18510000       1.61090000      -0.86490000
H        0.57950000      -0.57990000      -0.59330000
H        0.48480000      -0.25380000       1.13160000
H       -2.54940000       1.33200000       0.16550000
H       -4.70130000      -0.32130000       0.35710000
H       -3.81990000      -2.85780000       0.37100000
H       -1.34570000      -2.54180000       0.93620000
H       -1.62160000      -2.26260000      -1.82700000
