18
Properties=species:S:1:pos:R:3 gdb_126984=T pbc="F F F"
C        0.08500000       1.54470000       0.01920000
C        0.10930000       0.02910000      -0.04390000
O        0.75290000      -0.44810000       1.13520000
C        0.86780000      -1.79200000       1.25130000
C        1.45280000      -2.43940000       2.30270000
C        2.09670000      -1.95450000       3.54900000
O        1.38820000      -3.76980000       2.08260000
N        0.75590000      -4.02090000       0.87540000
C        0.44920000      -2.84160000       0.38650000
H        1.10160000       1.94390000       0.07070000
H       -0.40300000       1.94960000      -0.87200000
H       -0.46460000       1.88440000       0.90130000
H       -0.91080000      -0.37800000      -0.09930000
H        0.65780000      -0.31820000      -0.93140000
H        1.58360000      -2.33640000       4.43820000
H        3.14310000      -2.27280000       3.60790000
H        2.06320000      -0.86320000       3.56960000
H       -0.05900000      -2.78350000      -0.56440000
