25
Properties=species:S:1:pos:R:3 gdb_104412=T pbc="F F F"
C       -0.37130000       1.51080000      -0.21180000
O       -0.36810000       0.10220000      -0.24210000
C        0.62910000      -0.52840000      -1.04310000
C        0.43430000      -0.17460000      -2.52630000
C        2.07340000      -0.23300000      -0.57230000
C        2.90540000      -1.45350000      -1.02740000
C        1.88470000      -2.60620000      -1.26920000
C        0.50100000      -2.06420000      -0.83510000
C        0.16010000      -2.45200000       0.60960000
H        0.59230000       1.92600000       0.11630000
H       -0.62650000       1.95730000      -1.18340000
H       -1.13740000       1.80550000       0.51040000
H        0.64170000       0.88150000      -2.72330000
H        1.10510000      -0.75940000      -3.16200000
H       -0.59520000      -0.38710000      -2.83050000
H        2.46730000       0.70850000      -0.96560000
H        2.06700000      -0.15110000       0.51960000
H        3.45640000      -1.22940000      -1.94540000
H        3.65490000      -1.72120000      -0.27810000
H        1.87700000      -2.89230000      -2.32520000
H        2.14450000      -3.50880000      -0.70880000
H       -0.29000000      -2.45450000      -1.48540000
H        0.93550000      -2.12740000       1.31220000
H       -0.78330000      -2.00460000       0.92640000
H        0.07770000      -3.54090000       0.69180000
