21
Properties=species:S:1:pos:R:3 gdb_39502=T pbc="F F F"
C        0.04430000       1.49790000       0.10920000
C        1.37710000       0.78470000       0.04990000
C        2.27720000       0.85550000       1.26600000
O        3.10020000      -0.28810000       1.48340000
C        2.43510000      -1.53190000       1.52830000
C        1.31020000      -1.64010000       2.55890000
O        0.19530000      -0.78500000       2.34890000
C       -0.44030000      -0.92830000       1.09250000
C        0.07820000      -0.00210000      -0.00240000
H       -0.23130000       1.91720000       1.07260000
H       -0.28660000       2.08080000      -0.74320000
H        1.91240000       0.83540000      -0.89490000
H        2.98730000       1.67870000       1.13080000
H        1.68000000       1.07180000       2.15760000
H        2.05810000      -1.81530000       0.53420000
H        3.20270000      -2.26620000       1.79930000
H        0.97730000      -2.69260000       2.58420000
H        1.69140000      -1.38000000       3.55160000
H       -0.36420000      -1.97180000       0.74860000
H       -1.50500000      -0.72610000       1.26380000
H       -0.16120000      -0.38650000      -0.99210000
