17
Properties=species:S:1:pos:R:3 gdb_31191=T pbc="F F F"
C       -0.33010000       1.60030000      -0.14450000
C        0.12850000       0.14190000       0.03290000
C        0.88160000      -0.38670000      -1.13590000
C        2.16980000      -0.83730000      -1.29030000
C        2.29980000      -1.20950000      -2.68000000
C        1.09900000      -0.95750000      -3.24880000
O        0.22810000      -0.45830000      -2.32500000
C        3.15970000      -0.91770000      -0.28440000
C        4.01120000      -0.99200000       0.56470000
H        0.52800000       2.26660000      -0.27240000
H       -0.97160000       1.70140000      -1.02410000
H       -0.89530000       1.93330000       0.73090000
H        0.77800000       0.05050000       0.90830000
H       -0.74760000      -0.49350000       0.21810000
H        3.18000000      -1.60740000      -3.15830000
H        0.70840000      -1.06910000      -4.24640000
H        4.75990000      -1.05640000       1.31450000
