20
Properties=species:S:1:pos:R:3 gdb_85255=T pbc="F F F"
C        0.60480000       1.45940000      -0.12320000
C       -0.08980000       0.10140000       0.02590000
C        0.17520000      -0.86390000      -1.16540000
C        1.28660000      -1.77500000      -0.66720000
C        1.66440000      -3.09400000      -1.28750000
C        2.63080000      -1.94880000      -1.34820000
C        1.30420000      -1.66200000       0.83360000
O        1.97180000      -2.31500000       1.61010000
N        0.42090000      -0.66560000       1.15830000
H        1.67630000       1.32960000      -0.30680000
H        0.17500000       2.02080000      -0.95950000
H        0.48620000       2.06400000       0.78230000
H       -1.16640000       0.26570000       0.14880000
H       -0.72860000      -1.44420000      -1.37820000
H        0.43660000      -0.31270000      -2.07250000
H        1.88570000      -3.89970000      -0.59590000
H        1.14800000      -3.38440000      -2.19640000
H        2.77560000      -1.44230000      -2.29680000
H        3.50170000      -1.99000000      -0.70340000
H        0.38900000      -0.31870000       2.10470000
