17
Properties=species:S:1:pos:R:3 gdb_20827=T pbc="F F F"
C        0.01730000       1.53790000      -0.14400000
C       -0.02050000       0.01050000       0.01180000
C       -1.41600000      -0.52320000       0.08170000
N       -2.37440000      -0.12680000       0.90130000
C       -3.43610000      -0.92210000       0.56760000
C       -4.76380000      -0.83260000       1.24130000
N       -3.18960000      -1.78390000      -0.40870000
N       -1.89280000      -1.51100000      -0.70560000
H        1.04920000       1.90020000      -0.13240000
H       -0.44520000       1.84900000      -1.08540000
H       -0.53080000       2.01280000       0.67280000
H        0.51100000      -0.47290000      -0.81620000
H        0.50800000      -0.27450000       0.92950000
H       -5.18910000       0.16950000       1.12710000
H       -5.45330000      -1.56180000       0.81270000
H       -4.66670000      -1.02260000       2.31490000
H       -1.42550000      -2.02800000      -1.43200000
