21
Properties=species:S:1:pos:R:3 gdb_65804=T pbc="F F F"
C        0.03810000       1.65030000       0.09810000
C        0.02050000       0.12600000       0.01800000
C       -1.39480000      -0.46390000      -0.00780000
C       -2.25350000      -0.01400000      -1.20980000
C       -3.55000000      -0.67900000      -1.24820000
C       -4.61200000      -1.24200000      -1.25450000
C        0.98580000      -0.49980000      -1.02710000
O        1.71080000      -1.21320000      -0.00810000
C        0.94060000      -0.59500000       1.04000000
H        1.06290000       2.02380000       0.18940000
H       -0.39880000       2.11110000      -0.79400000
H       -0.52730000       2.00590000       0.96730000
H       -1.32480000      -1.55730000      -0.02200000
H       -1.91710000      -0.19820000       0.91950000
H       -2.40740000       1.07110000      -1.17780000
H       -1.71410000      -0.21750000      -2.14470000
H       -5.55310000      -1.73300000      -1.27180000
H        0.53540000      -1.18070000      -1.76110000
H        1.62360000       0.22010000      -1.55780000
H        1.55300000       0.07190000       1.66210000
H        0.45400000      -1.33640000       1.68650000
