21
Properties=species:S:1:pos:R:3 gdb_40430=T pbc="F F F"
C        0.06180000       1.42610000      -0.33270000
C        1.38950000       0.80160000       0.02310000
C        0.13250000      -0.03530000       0.04040000
C       -0.44480000      -0.59130000       1.30590000
C       -0.46410000      -2.10620000       1.50060000
C       -1.75250000      -1.33780000       1.34080000
O       -2.49210000      -1.00990000       2.48640000
C       -1.59770000      -0.40540000       3.41980000
C       -0.44520000       0.21870000       2.59940000
H       -0.37400000       2.12600000       0.37120000
H       -0.13180000       1.67330000      -1.37070000
H        2.11390000       0.63260000      -0.76620000
H        1.83020000       1.07270000       0.97660000
H        0.03080000      -0.71980000      -0.79830000
H       -0.14060000      -2.70850000       0.65770000
H       -0.21410000      -2.52890000       2.46820000
H       -2.38740000      -1.48200000       0.47410000
H       -2.16310000       0.32820000       4.00110000
H       -1.21290000      -1.16120000       4.11850000
H        0.50190000       0.17750000       3.14620000
H       -0.65810000       1.26930000       2.37750000
