20
Properties=species:S:1:pos:R:3 gdb_6568=T pbc="F F F"
C       -0.13900000       1.57440000       0.07410000
C        0.04090000       0.06480000       0.03020000
C        0.87030000      -0.65030000      -1.09950000
C        0.58110000      -0.65540000      -2.57540000
C        2.17270000      -0.14840000      -0.39740000
C        1.22510000      -0.64140000       0.73850000
O        1.41800000      -0.58290000       2.10760000
C        0.92770000      -1.88750000      -0.14980000
H        0.78180000       2.13080000      -0.11770000
H       -0.87960000       1.89400000      -0.66760000
H       -0.50820000       1.88100000       1.05840000
H       -0.92100000      -0.42710000       0.22160000
H        0.59220000       0.36090000      -2.98460000
H        1.32690000      -1.24270000      -3.12230000
H       -0.40370000      -1.08850000      -2.78290000
H        3.07050000      -0.74900000      -0.57590000
H        2.40120000       0.91700000      -0.44780000
H        2.21830000      -1.07280000       2.32480000
H       -0.01580000      -2.40920000       0.03520000
H        1.75410000      -2.58580000      -0.31530000
