13
Properties=species:S:1:pos:R:3 gdb_123965=T pbc="F F F"
C        0.03250000       1.34430000      -0.03540000
N        1.31590000       2.02420000      -0.04810000
C        2.36820000       1.36320000       0.20720000
N        2.45710000       0.00710000       0.48800000
C        1.39100000      -0.87720000       0.31010000
C        0.15260000      -0.17610000       0.00730000
N       -0.87550000      -0.93480000      -0.24190000
N       -1.76760000      -1.59830000      -0.45810000
O        1.52530000      -2.08150000       0.39250000
H       -0.53330000       1.71630000       0.83190000
H       -0.53380000       1.65560000      -0.92200000
H        3.32740000       1.87920000       0.22470000
H        3.36090000      -0.42660000       0.60100000
