19
Properties=species:S:1:pos:R:3 gdb_32792=T pbc="F F F"
C        0.04330000       1.59970000       0.14790000
C        0.06240000       0.07040000       0.10840000
C       -1.32040000      -0.54140000      -0.17930000
C       -1.32810000      -2.03720000      -0.14880000
C       -1.57110000      -2.92200000      -1.16860000
O       -1.88500000      -2.80520000      -2.48320000
N       -1.44790000      -4.18170000      -0.64020000
C       -1.13280000      -4.01850000       0.68550000
N       -1.05480000      -2.75430000       1.00690000
H        1.03720000       2.00570000       0.36050000
H       -0.28920000       2.02100000      -0.80820000
H       -0.63870000       1.96670000       0.92330000
H        0.77330000      -0.27720000      -0.65170000
H        0.41780000      -0.32870000       1.06450000
H       -2.03770000      -0.15670000       0.55810000
H       -1.67920000      -0.18540000      -1.15710000
H       -1.96220000      -1.86850000      -2.69110000
H       -1.57720000      -5.04110000      -1.14710000
H       -0.97850000      -4.85900000       1.34490000
