19
Properties=species:S:1:pos:R:3 gdb_56823=T pbc="F F F"
C       -0.34290000       1.41890000       0.11270000
C        0.02470000      -0.04940000       0.08030000
C        1.41440000      -0.50680000      -0.31220000
O        2.42160000       0.44490000      -0.50410000
C        0.94700000      -0.68420000       1.10810000
C        1.56620000       0.13940000       2.22480000
N        0.55940000       0.49210000       3.23410000
C        2.71900000      -0.59270000       2.80080000
N        3.58890000      -1.16570000       3.30320000
H        0.53930000       2.05380000       0.22460000
H       -0.84040000       1.70720000      -0.81970000
H       -1.01880000       1.63550000       0.94380000
H       -0.78150000      -0.70120000      -0.24670000
H        1.51700000      -1.40210000      -0.92410000
H        2.27810000       0.86880000      -1.35680000
H        0.70670000      -1.70110000       1.40600000
H        1.96120000       1.06650000       1.80200000
H        0.19430000      -0.35500000       3.66200000
H        0.99590000       1.02230000       3.98350000
