18
Properties=species:S:1:pos:R:3 gdb_16070=T pbc="F F F"
C       -0.09530000       1.51490000      -0.16400000
C       -0.04020000       0.01880000       0.17680000
C       -1.36940000      -0.64790000       0.01340000
O       -2.44690000      -0.19880000       0.86760000
C       -2.90170000      -1.57450000       1.04500000
C       -1.88370000      -2.08890000       0.04150000
C       -1.99270000      -1.23100000      -1.21220000
O       -3.20470000      -0.76380000      -1.71360000
H        0.87990000       1.98590000      -0.01090000
H       -0.38870000       1.67030000      -1.20710000
H       -0.82390000       2.02670000       0.47120000
H        0.68300000      -0.49270000      -0.46950000
H        0.30470000      -0.11600000       1.20950000
H       -2.72270000      -1.90050000       2.07440000
H       -3.96080000      -1.69410000       0.79110000
H       -1.35720000      -3.03360000       0.08470000
H       -1.30460000      -1.51510000      -2.00390000
H       -3.51230000      -0.10130000      -1.07950000
