17
Properties=species:S:1:pos:R:3 gdb_110240=T pbc="F F F"
C        0.28710000       0.98580000       0.36740000
O       -0.41030000      -0.03040000      -0.33570000
C        0.35010000      -0.63000000      -1.32680000
C        1.45760000      -1.65420000      -1.03000000
C        1.03720000      -2.51140000       0.12700000
O        1.59440000      -2.87850000       1.12210000
C       -0.31800000      -2.88360000      -0.52110000
C        0.10580000      -2.02710000      -1.72930000
O       -0.02740000      -2.42750000      -3.04130000
H        1.17920000       0.58500000       0.86640000
H        0.59330000       1.80050000      -0.30500000
H       -0.39990000       1.38170000       1.11750000
H        0.63690000       0.03210000      -2.14790000
H        2.45830000      -1.52080000      -1.42280000
H       -0.33340000      -3.94870000      -0.76970000
H       -1.22910000      -2.60220000       0.01030000
H       -0.87360000      -2.10780000      -3.37470000
