16
Properties=species:S:1:pos:R:3 gdb_39252=T pbc="F F F"
C       -0.06210000       1.42980000       0.03080000
C        1.32970000       0.83150000       0.00440000
C        2.05950000       0.49010000       1.28540000
O        1.19040000      -0.37770000       2.04770000
C        0.12890000      -0.82240000       1.28190000
O        0.24410000      -2.19470000       0.78100000
C       -0.03560000      -2.11060000      -0.54430000
N       -0.18550000      -0.96860000      -1.09230000
C        0.09700000      -0.05090000      -0.02420000
H       -0.44280000       1.86480000       0.95150000
H       -0.38220000       1.92990000      -0.87640000
H        1.90960000       0.94790000      -0.90240000
H        2.99920000      -0.02890000       1.06020000
H        2.28340000       1.34810000       1.92830000
H       -0.76630000      -0.81390000       1.91320000
H       -0.10630000      -3.06420000      -1.05520000
