16
Properties=species:S:1:pos:R:3 gdb_105135=T pbc="F F F"
C        0.05110000       1.31960000      -0.24190000
O       -0.06180000      -0.00450000       0.26990000
C       -1.30870000      -0.57330000       0.09610000
C       -1.66320000      -1.17440000      -1.24810000
C       -1.33590000      -2.09250000      -0.08380000
C       -0.10870000      -2.82900000      -0.04880000
C        0.90270000      -3.47670000      -0.01490000
C       -2.37430000       0.01810000       0.88370000
N       -3.21620000       0.50700000       1.50820000
H        1.08180000       1.62890000      -0.06320000
H       -0.15860000       1.34980000      -1.31920000
H       -0.62990000       2.00710000       0.27550000
H       -2.69040000      -1.12910000      -1.58900000
H       -0.90210000      -1.07160000      -2.01230000
H       -2.18490000      -2.58370000       0.38180000
H        1.80220000      -4.04000000       0.02010000
