14
Properties=species:S:1:pos:R:3 gdb_9325=T pbc="F F F"
O       -0.02950000       1.43620000      -0.10690000
C       -0.01370000       0.02490000      -0.05350000
C       -1.41000000      -0.56180000       0.04660000
O       -2.09740000      -0.16690000      -1.16270000
C       -3.37250000      -0.58340000      -1.27500000
O       -3.94730000      -1.26000000      -0.46100000
C       -3.96020000      -0.11120000      -2.50970000
C       -4.49690000       0.25550000      -3.52000000
H       -0.56840000       1.68050000      -0.86750000
H        0.50210000      -0.41070000      -0.92350000
H        0.55060000      -0.25380000       0.84230000
H       -1.39380000      -1.65390000       0.11790000
H       -1.95070000      -0.16070000       0.90860000
H       -4.97350000       0.57870000      -4.41350000
