19
Properties=species:S:1:pos:R:3 gdb_78088=T pbc="F F F"
C        0.01510000       1.58460000       0.06880000
C        0.06510000       0.07330000       0.05020000
C        1.29330000      -0.75940000      -0.29210000
C        2.53530000      -0.13580000       0.35350000
O        1.86460000      -0.08160000       1.64980000
C        0.71610000      -0.76820000       1.11010000
C        0.08050000      -1.80510000       1.97610000
C        3.71120000      -0.98980000       0.37740000
C        4.68670000      -1.69170000       0.37190000
H        0.84610000       1.99870000       0.64480000
H        0.05110000       2.00000000      -0.94400000
H       -0.91160000       1.93070000       0.53840000
H       -0.83090000      -0.40310000      -0.34580000
H        1.31470000      -1.52250000      -1.05830000
H        2.80870000       0.87000000       0.01100000
H       -0.34940000      -1.34500000       2.87310000
H       -0.72590000      -2.31080000       1.43700000
H        0.81430000      -2.55150000       2.29490000
H        5.55090000      -2.30920000       0.37670000
