17
Properties=species:S:1:pos:R:3 gdb_51027=T pbc="F F F"
O        0.09580000       0.23130000      -1.01660000
C        0.14370000       1.08440000      -0.16340000
C        1.28410000       2.08130000      -0.07690000
C        1.16770000       3.14200000      -1.20990000
C        2.50890000       3.89910000      -1.47330000
C        2.68110000       2.94620000      -2.68170000
N        1.24490000       2.60000000      -2.58000000
C       -0.01310000       3.98760000      -0.97140000
N       -0.93160000       4.65580000      -0.75730000
H       -0.67140000       1.19450000       0.58110000
H        1.29740000       2.57800000       0.89800000
H        2.22520000       1.54120000      -0.21940000
H        2.34710000       4.93730000      -1.76240000
H        3.24660000       3.84870000      -0.67230000
H        2.96020000       3.40400000      -3.63450000
H        3.36950000       2.11580000      -2.47720000
H        0.99000000       1.62020000      -2.65940000
