11
Properties=species:S:1:pos:R:3 gdb_183=T pbc="F F F"
O       -0.12940000       1.34850000       0.08800000
N        0.03970000      -0.04620000       0.06430000
C       -1.07300000      -0.63280000      -0.03100000
C       -2.53780000      -0.28490000      -0.12740000
O       -2.85600000      -1.69610000      -0.18650000
C       -1.46350000      -2.08780000      -0.09650000
H        0.77780000       1.66490000       0.16150000
H       -2.96830000       0.21240000       0.75120000
H       -2.84000000       0.25830000      -1.03190000
H       -1.12510000      -2.63780000      -0.98370000
H       -1.25340000      -2.68380000       0.80060000
