17
Properties=species:S:1:pos:R:3 gdb_108158=T pbc="F F F"
C       -0.12780000       1.33670000      -0.28700000
O       -0.08130000      -0.01080000       0.16760000
C       -1.30430000      -0.63410000       0.21550000
C       -2.37450000      -0.24780000       1.27290000
N       -3.48650000      -1.13800000       0.87190000
C       -2.93270000      -2.05280000       0.18050000
N       -3.16260000      -2.01750000      -1.27640000
C       -1.72610000      -1.42360000      -1.15300000
C       -1.36940000      -2.10840000       0.11030000
H        0.90550000       1.68440000      -0.34030000
H       -0.58820000       1.40330000      -1.28110000
H       -0.68490000       1.98100000       0.40460000
H       -1.96790000      -0.38850000       2.28550000
H       -2.75530000       0.77570000       1.20010000
H       -2.97540000      -2.94060000      -1.68520000
H       -1.14260000      -1.27590000      -2.05650000
H       -0.66420000      -2.88570000       0.37580000
