15
Properties=species:S:1:pos:R:3 gdb_13471=T pbc="F F F"
C       -0.03320000       1.49940000       0.02890000
C       -0.05130000      -0.01010000       0.07430000
O       -0.10160000      -0.67500000       1.08490000
N       -0.00530000      -0.64240000      -1.16620000
C       -0.00770000      -2.08320000      -1.47360000
C        0.06050000      -1.70160000      -2.98010000
C        0.05630000      -0.23630000      -2.50840000
O        0.08970000       0.84940000      -3.01320000
H        0.86860000       1.85800000      -0.47550000
H       -0.88110000       1.87670000      -0.54970000
H       -0.07250000       1.87800000       1.04990000
H        0.86320000      -2.60680000      -1.07480000
H       -0.92050000      -2.58750000      -1.15070000
H        0.97140000      -1.99550000      -3.50420000
H       -0.80890000      -1.97610000      -3.57990000
