17
Properties=species:S:1:pos:R:3 gdb_35341=T pbc="F F F"
C       -0.12730000      -1.29340000      -0.03770000
C       -0.06700000      -0.09360000       0.01690000
C       -0.01870000       1.35130000       0.03100000
N       -0.33150000       1.99030000       1.41980000
C        1.11870000       2.39520000       1.41690000
C        2.36300000       3.34810000       1.38360000
N        2.81900000       2.09620000       0.55730000
C        2.15800000       1.28700000       1.68000000
C        1.34450000       2.19370000      -0.03050000
H       -0.17060000      -2.35390000      -0.07520000
H       -0.68840000       1.73860000      -0.74290000
H       -0.93980000       2.79190000       1.25280000
H        2.28110000       4.26280000       0.79220000
H        2.97020000       3.48650000       2.28260000
H        2.70970000       1.31990000       2.62250000
H        1.91510000       0.26520000       1.39400000
H        1.25980000       3.02270000      -0.73520000
