19
Properties=species:S:1:pos:R:3 gdb_100362=T pbc="F F F"
C        0.06740000       1.56210000       0.02840000
C        0.02840000       0.01990000       0.05070000
C        0.83940000      -0.50390000       1.27060000
O        0.86020000      -1.91140000       1.35570000
C       -1.44030000      -0.50900000       0.08980000
C       -2.27430000       0.05590000       1.21840000
O       -3.27870000       0.70240000       1.05990000
C        0.66800000      -0.51690000      -1.15520000
C        1.21540000      -0.99340000      -2.11500000
H        1.09590000       1.92180000      -0.06160000
H       -0.50630000       1.95200000      -0.81620000
H       -0.36290000       1.97260000       0.94760000
H        1.85440000      -0.08360000       1.21500000
H        0.38440000      -0.14590000       2.19890000
H        1.27510000      -2.23830000       0.54770000
H       -1.94540000      -0.28060000      -0.85150000
H       -1.39340000      -1.59710000       0.21690000
H       -1.91150000      -0.18020000       2.24420000
H        1.68690000      -1.39130000      -2.98000000
