20
Properties=species:S:1:pos:R:3 gdb_118788=T pbc="F F F"
C       -0.01140000       1.69250000       0.15670000
C       -0.05910000       0.18060000       0.03540000
C       -1.37230000      -0.40780000      -0.45700000
C       -1.72960000      -0.00780000      -1.88740000
O       -2.90350000      -0.72280000      -2.23850000
C        1.20910000      -0.54230000      -0.32150000
C        0.66700000      -0.65000000       1.09860000
C        1.36710000      -0.01650000       2.17900000
N        1.92670000       0.49900000       3.05140000
H        0.92010000       2.02950000       0.61820000
H       -0.08720000       2.16640000      -0.82710000
H       -0.83920000       2.06070000       0.77230000
H       -1.32960000      -1.50260000      -0.42350000
H       -2.19040000      -0.10460000       0.20730000
H       -1.89310000       1.07850000      -1.95140000
H       -0.89210000      -0.25340000      -2.56060000
H       -3.17370000      -0.44710000      -3.11910000
H        1.15260000      -1.43930000      -0.92860000
H        2.11270000       0.04090000      -0.45770000
H        0.20440000      -1.59230000       1.37360000
