17
Properties=species:S:1:pos:R:3 gdb_34422=T pbc="F F F"
N       -0.02440000      -1.10730000      -0.48480000
C       -0.00520000       0.01810000      -0.22140000
C        0.01890000       1.44760000       0.08410000
C       -0.79510000       2.27910000      -0.93810000
O       -0.16560000       3.54680000      -0.98320000
C        1.23520000       3.28990000      -0.94020000
C        1.40050000       2.20570000       0.12110000
C        1.01400000       2.63620000       1.55850000
N       -0.17900000       1.75570000       1.51470000
H       -0.77090000       1.78430000      -1.92150000
H       -1.83770000       2.41800000      -0.63880000
H        1.59870000       2.93820000      -1.91870000
H        1.73930000       4.22760000      -0.69200000
H        2.30090000       1.60250000       0.01870000
H        1.71850000       2.35700000       2.34780000
H        0.79360000       3.70670000       1.63780000
H       -1.06520000       2.19940000       1.73000000
