18
Properties=species:S:1:pos:R:3 gdb_44751=T pbc="F F F"
N       -0.08810000       0.97280000      -1.01210000
C       -0.01360000       0.06610000      -0.11670000
O       -1.21030000      -0.27650000       0.43310000
C       -1.40390000      -1.25170000       1.44620000
C       -0.49740000      -1.11970000       2.69570000
C        0.45710000      -2.17490000       2.04950000
C       -0.76000000      -2.63640000       1.18470000
C        1.50010000      -1.51180000       1.20300000
C        1.26470000      -0.56160000       0.29070000
H        0.84030000       1.17620000      -1.37680000
H       -2.48150000      -1.23050000       1.61230000
H       -0.08600000      -0.13340000       2.91680000
H       -1.00320000      -1.51570000       3.58010000
H        0.90110000      -2.91570000       2.71580000
H       -1.33370000      -3.42590000       1.67690000
H       -0.56720000      -2.91310000       0.14670000
H        2.52990000      -1.82990000       1.34340000
H        2.11120000      -0.16010000      -0.25880000
