21
Properties=species:S:1:pos:R:3 gdb_36864=T pbc="F F F"
C        0.01030000       1.44330000      -0.36930000
C       -0.06730000      -0.04860000      -0.08140000
C       -0.33820000      -0.55030000       1.31580000
C       -1.39250000      -0.68650000       0.24440000
C        1.38250000       2.02150000      -0.18760000
C        2.14500000       2.64370000      -1.08340000
C        3.43900000       3.07800000      -0.45950000
O        3.36360000       2.64370000       0.89630000
C        2.12310000       1.98540000       1.12830000
H       -0.33050000       1.64140000      -1.39260000
H       -0.69600000       1.95960000       0.29800000
H        0.61680000      -0.64810000      -0.67640000
H        0.17280000      -1.44440000       1.65500000
H       -0.50470000       0.18680000       2.09500000
H       -2.26280000      -0.04080000       0.30630000
H       -1.60200000      -1.67410000      -0.15120000
H        1.89300000       2.83430000      -2.11970000
H        4.31860000       2.62680000      -0.94720000
H        3.57910000       4.17080000      -0.49560000
H        1.56550000       2.50200000       1.92780000
H        2.30480000       0.95790000       1.47860000
