19
Properties=species:S:1:pos:R:3 gdb_74964=T pbc="F F F"
C        0.03930000       1.49380000       0.01060000
C       -0.07100000       0.00710000      -0.03100000
C       -0.12430000      -0.83320000      -1.06850000
C       -0.02670000      -2.21910000      -0.44890000
O        1.35170000      -2.39580000      -0.02660000
C        1.45780000      -1.54140000       1.11290000
C        0.02460000      -0.90930000       1.19980000
C       -0.43310000      -0.40490000       2.54400000
O       -0.72250000      -2.06790000       0.76580000
H        0.97930000       1.81220000       0.48000000
H        0.00660000       1.92160000      -0.99470000
H       -0.77020000       1.94240000       0.59920000
H       -0.08380000      -0.60740000      -2.12550000
H       -0.34580000      -3.09550000      -1.00860000
H        1.66790000      -2.14100000       2.00610000
H        2.25030000      -0.79820000       0.97240000
H        0.18420000       0.43750000       2.87120000
H       -1.47360000      -0.07160000       2.49830000
H       -0.35720000      -1.19760000       3.29350000
