18
Properties=species:S:1:pos:R:3 gdb_94405=T pbc="F F F"
C       -0.32730000       1.44200000       0.01050000
C        0.06740000      -0.02390000      -0.07910000
C        1.36650000      -0.36500000      -0.84330000
O        1.96360000      -0.93030000       0.34700000
C        0.79830000      -0.67060000       1.12250000
C        0.98500000      -0.01590000       2.52520000
N        0.29610000      -1.18560000       3.08060000
C        0.14140000      -1.85910000       1.89330000
O       -0.33950000      -2.91950000       1.59860000
H        0.51430000       2.06590000       0.33020000
H       -0.66230000       1.80880000      -0.96550000
H       -1.14940000       1.59230000       0.71810000
H       -0.78190000      -0.63300000      -0.39870000
H        1.27410000      -1.10780000      -1.64250000
H        1.93800000       0.49650000      -1.21060000
H        2.03730000       0.07020000       2.81240000
H        0.46900000       0.93510000       2.68950000
H        0.03080000      -1.42360000       4.02430000
