20
Properties=species:S:1:pos:R:3 gdb_6160=T pbc="F F F"
C        0.10480000       1.23440000      -0.28210000
O       -0.02190000      -0.02400000       0.33960000
C       -1.30770000      -0.57130000       0.22080000
C       -1.73830000      -1.16550000      -1.15280000
C       -2.28380000      -2.40590000      -0.40050000
C       -3.79130000      -2.37820000      -0.16730000
O       -1.89030000      -3.60700000      -1.03810000
C       -1.44620000      -1.97240000       0.84520000
H        1.12840000       1.57880000      -0.11620000
H       -0.07830000       1.17940000      -1.36590000
H       -0.59230000       1.97230000       0.14660000
H       -2.05750000       0.13710000       0.60730000
H       -2.43660000      -0.60500000      -1.77880000
H       -0.85760000      -1.44740000      -1.73500000
H       -4.32410000      -2.51210000      -1.11390000
H       -4.09320000      -3.18260000       0.51580000
H       -4.11240000      -1.43210000       0.28020000
H       -2.24710000      -4.34590000      -0.53270000
H       -0.47650000      -2.47540000       0.83760000
H       -1.90210000      -2.05320000       1.83520000
