18
Properties=species:S:1:pos:R:3 gdb_98375=T pbc="F F F"
C        0.03210000       1.55870000      -0.13230000
C        0.13200000       0.03430000      -0.07340000
C        0.75400000      -0.55900000      -1.32850000
N        1.11920000       0.20180000      -2.26750000
N        0.88730000      -2.00440000      -1.35700000
C        1.44030000      -2.71330000      -2.43810000
N        1.87870000      -2.16810000      -3.49820000
C        0.46400000      -2.80840000      -0.28440000
O        0.55150000      -4.01150000      -0.25740000
H        1.01820000       2.01120000      -0.25210000
H       -0.57690000       1.87860000      -0.97980000
H       -0.42010000       1.93390000       0.79060000
H        0.72240000      -0.26080000       0.80390000
H       -0.86790000      -0.39300000       0.07820000
H        1.51920000      -0.32070000      -3.04900000
H        1.43430000      -3.78260000      -2.22900000
H        2.22980000      -2.87960000      -4.13650000
H        0.03800000      -2.23270000       0.54330000
