19
Properties=species:S:1:pos:R:3 gdb_92111=T pbc="F F F"
C       -0.27920000       1.55540000      -0.00470000
C        0.04140000       0.06350000      -0.01030000
O        0.71570000      -0.32520000      -1.22340000
C        2.00690000      -0.80490000      -0.87600000
C        2.90360000       0.33930000      -0.29510000
C        2.43010000      -0.10180000       1.08800000
O        3.04320000       0.19430000       2.28800000
C        1.91810000      -1.43800000       0.53400000
C        0.95520000      -0.42970000       1.10540000
H        0.62960000       2.16240000       0.01370000
H       -0.85710000       1.82230000      -0.89410000
H       -0.87590000       1.80760000       0.87870000
H       -0.90330000      -0.49860000       0.02990000
H        2.40160000      -1.38250000      -1.71010000
H        3.96790000       0.10970000      -0.42670000
H        2.70310000       1.35620000      -0.64530000
H        3.97430000      -0.04600000       2.21690000
H        2.03340000      -2.46770000       0.84310000
H        0.54410000      -0.60700000       2.09250000
