16
Properties=species:S:1:pos:R:3 gdb_15982=T pbc="F F F"
C       -0.04480000       1.37380000       0.14440000
N       -0.07460000      -0.07710000       0.26340000
C       -1.10820000      -0.70330000      -0.05440000
O       -2.34240000      -0.27510000      -0.53110000
C       -2.88030000      -1.63950000      -0.50720000
C       -1.51880000      -2.13830000      -0.03170000
C       -0.69360000      -3.32510000      -0.34310000
N       -1.24380000      -3.11740000       1.00610000
H        0.70520000       1.65910000      -0.60200000
H       -1.00640000       1.81700000      -0.13880000
H        0.27560000       1.80420000       1.09910000
H       -3.69320000      -1.73170000       0.21690000
H       -3.20470000      -1.94960000      -1.50340000
H       -1.13120000      -4.15540000      -0.89050000
H        0.36620000      -3.15710000      -0.51400000
H       -0.52710000      -2.74640000       1.62750000
