18
Properties=species:S:1:pos:R:3 gdb_108700=T pbc="F F F"
O       -0.21510000       1.46710000      -0.25060000
C       -0.20490000       0.05480000      -0.25870000
C       -1.42380000      -0.55860000       0.36130000
C       -2.55810000       0.14460000       0.62560000
C       -3.21280000       0.69290000      -0.65960000
N       -4.01130000      -0.61170000      -0.68700000
C       -3.29260000      -1.86580000      -0.11650000
C       -1.77670000      -2.01640000       0.10980000
C       -3.76030000      -0.79520000       0.76760000
H       -0.60840000       1.73750000       0.58850000
H       -0.11830000      -0.24990000      -1.31340000
H        0.69710000      -0.34630000       0.24030000
H       -3.95060000       1.49210000      -0.54400000
H       -2.56010000       0.89580000      -1.51110000
H       -3.90050000      -2.73620000      -0.34510000
H       -1.20830000      -2.38090000      -0.75420000
H       -1.61200000      -2.73780000       0.92250000
H       -4.54850000      -0.79420000       1.51220000
