21
Properties=species:S:1:pos:R:3 gdb_77522=T pbc="F F F"
C       -0.00260000       1.51210000       0.09210000
C       -0.02880000       0.01620000      -0.02300000
C        0.85460000      -0.70120000      -1.06090000
C        0.59260000      -2.16590000      -0.59480000
C       -0.36300000      -1.85290000       0.57190000
C       -0.79880000      -2.94050000       1.50920000
O        0.31700000      -0.70950000       1.21890000
C       -1.34580000      -0.81220000      -0.03820000
O       -2.33270000      -0.35450000       0.84540000
H        0.97800000       1.85330000       0.43890000
H       -0.19960000       1.97040000      -0.88240000
H       -0.76430000       1.86440000       0.79340000
H        0.53590000      -0.50510000      -2.08890000
H        1.90160000      -0.40540000      -0.96080000
H        0.12670000      -2.79260000      -1.36090000
H        1.49720000      -2.66650000      -0.24140000
H        0.05350000      -3.31580000       2.08450000
H       -1.55860000      -2.57590000       2.20620000
H       -1.22670000      -3.77660000       0.94650000
H       -1.83120000      -1.02950000      -0.99360000
H       -1.87450000      -0.17180000       1.67710000
