13
Properties=species:S:1:pos:R:3 gdb_3685=T pbc="F F F"
C        0.01640000       1.47040000       0.02930000
C        0.00930000      -0.01830000      -0.04960000
N        0.16780000      -0.75050000      -1.14190000
C        0.08770000      -2.02910000      -0.66960000
N        0.26620000      -3.11960000      -1.49850000
N       -0.11660000      -2.14300000       0.63630000
N       -0.15790000      -0.82810000       1.01120000
H        0.99510000       1.86680000      -0.25810000
H       -0.72270000       1.89180000      -0.65760000
H       -0.21230000       1.81710000       1.04060000
H        0.00880000      -2.93010000      -2.45590000
H       -0.14490000      -3.97000000      -1.14200000
H       -0.30260000      -0.59030000       1.97770000
