18
Properties=species:S:1:pos:R:3 gdb_37997=T pbc="F F F"
C       -0.09790000       1.35570000       0.21080000
C        1.39200000       1.51900000      -0.22710000
C        2.36780000       0.29790000      -0.21870000
C        2.47080000      -1.04880000       0.47820000
N        1.90030000      -1.36290000       1.79570000
C        1.26110000      -1.92010000       0.56440000
C        0.00070000      -1.14570000       0.37390000
C        0.05440000      -0.03860000      -0.37560000
C        1.25880000       0.38460000      -1.21690000
H       -0.36920000       1.42510000       1.26780000
H       -0.68890000       2.06370000      -0.38190000
H        1.84220000       2.49150000      -0.40700000
H        3.33810000       0.65230000      -0.56600000
H        3.41150000      -1.54150000       0.23730000
H        2.46150000      -2.08110000       2.25040000
H        1.34930000      -2.98710000       0.38080000
H       -0.72110000      -1.20300000       1.18640000
H        1.34250000       0.37330000      -2.29620000
