27
Properties=species:S:1:pos:R:3 gdb_102642=T pbc="F F F"
C       -0.60680000       1.71450000      -0.50150000
C       -0.43280000       0.22080000      -0.21920000
C       -1.72220000      -0.46960000       0.23270000
C       -1.56290000      -1.99040000       0.40190000
C       -1.38690000      -2.76140000      -0.91060000
O       -2.09430000       0.12480000       1.47500000
C       -3.48580000       0.12950000       1.78420000
C       -3.59830000       0.14180000       3.30570000
C       -4.18690000       1.33150000       1.14450000
H        0.34390000       2.17570000      -0.78620000
H       -1.31540000       1.88370000      -1.32060000
H       -0.98690000       2.22980000       0.38380000
H       -0.05340000      -0.28440000      -1.11430000
H        0.31760000       0.07480000       0.56810000
H       -2.50690000      -0.27820000      -0.51920000
H       -0.71380000      -2.17600000       1.07120000
H       -2.45040000      -2.37170000       0.92070000
H       -0.46300000      -2.48720000      -1.42890000
H       -1.35020000      -3.83950000      -0.72660000
H       -2.22030000      -2.57180000      -1.59690000
H       -3.94980000      -0.79420000       1.40410000
H       -3.10560000       1.03120000       3.71200000
H       -4.64650000       0.15420000       3.61970000
H       -3.11380000      -0.74000000       3.73310000
H       -3.76570000       2.26460000       1.53220000
H       -4.06910000       1.33030000       0.05680000
H       -5.25940000       1.31710000       1.36560000
