17
Properties=species:S:1:pos:R:3 gdb_93461=T pbc="F F F"
C       -0.06540000       1.48510000      -0.10570000
N        0.00380000       0.03210000      -0.07700000
C       -1.24010000      -0.70120000       0.10230000
C       -1.08970000      -2.10900000      -0.46300000
C        0.13350000      -2.75140000       0.11620000
N        0.18250000      -3.95340000       0.49100000
O        1.24450000      -1.93450000       0.19000000
C        1.23140000      -0.55810000       0.01110000
O        2.28940000       0.01250000      -0.03890000
H        0.93930000       1.87500000      -0.25710000
H       -0.71560000       1.81450000      -0.92360000
H       -0.46610000       1.87930000       0.83710000
H       -1.52780000      -0.73720000       1.16400000
H       -2.03130000      -0.16270000      -0.42830000
H       -1.95510000      -2.73370000      -0.24270000
H       -0.97430000      -2.04890000      -1.55220000
H        1.11690000      -4.18250000       0.83650000
