18
Properties=species:S:1:pos:R:3 gdb_127106=T pbc="F F F"
C       -0.04890000       1.55500000       0.51050000
N       -0.11740000       0.20530000      -0.02610000
C        0.94620000      -0.65950000       0.48970000
C       -1.39780000      -0.36740000       0.00620000
C       -2.53400000      -0.00670000       0.66300000
O       -3.55330000      -0.82240000       0.33780000
N       -3.09380000      -1.78190000      -0.57020000
C       -1.82660000      -1.50300000      -0.76380000
N       -1.01530000      -2.26890000      -1.58800000
H        0.94000000       1.97570000       0.30520000
H       -0.80200000       2.18220000       0.02570000
H       -0.21150000       1.59470000       1.60280000
H        0.90760000      -0.76110000       1.58750000
H        0.86000000      -1.65560000       0.05110000
H        1.91850000      -0.23790000       0.21620000
H       -2.76740000       0.78820000       1.35290000
H       -1.54810000      -2.88330000      -2.19070000
H       -0.36270000      -1.70460000      -2.11800000
