12
Properties=species:S:1:pos:R:3 gdb_132455=T pbc="F F F"
N        0.00420000       1.39550000       0.14880000
C       -0.06780000       0.01930000       0.04480000
C       -1.19820000      -0.73820000       0.01470000
N       -1.18490000      -2.12090000      -0.02040000
C       -0.03950000      -2.65940000      -0.02870000
F        0.11510000      -3.95790000      -0.05360000
O        1.15170000      -2.05700000      -0.01850000
C        1.22500000      -0.65710000       0.00850000
O        2.30580000      -0.13630000      -0.01040000
H        0.90240000       1.77180000      -0.12110000
H       -0.78350000       1.91620000      -0.20500000
H       -2.18320000      -0.28330000       0.02210000
