22
Properties=species:S:1:pos:R:3 gdb_69825=T pbc="F F F"
C        0.12440000       1.52050000      -0.02930000
C       -0.03850000       0.01580000       0.02440000
C       -0.96910000      -0.57330000       1.06460000
C        0.53620000      -0.73530000       1.20280000
N        1.28020000      -1.95580000       0.99800000
C        0.65090000      -3.26690000       1.09740000
C        1.05480000      -2.72050000      -0.23110000
C        0.02350000      -2.21400000      -1.23060000
C        0.06080000      -0.67840000      -1.32830000
H        1.08570000       1.79850000      -0.47770000
H       -0.66850000       1.98370000      -0.62930000
H        0.08360000       1.96180000       0.97160000
H       -1.45450000       0.10660000       1.75740000
H       -1.57740000      -1.43140000       0.80400000
H        0.99170000      -0.13010000       1.98250000
H        1.24360000      -4.03330000       1.59110000
H       -0.41560000      -3.31570000       1.31010000
H        1.97880000      -3.08720000      -0.67620000
H        0.22620000      -2.64860000      -2.21410000
H       -0.98380000      -2.54410000      -0.95620000
H       -0.74650000      -0.32960000      -1.98460000
H        1.00240000      -0.37060000      -1.80430000
