18
Properties=species:S:1:pos:R:3 gdb_96886=T pbc="F F F"
C       -0.23870000       1.41240000      -0.16360000
N       -0.20700000      -0.03140000      -0.35480000
C       -1.16380000      -0.72750000       0.03790000
O       -2.34850000      -0.37190000       0.67610000
C       -2.81670000      -1.73840000       0.67110000
C       -4.07990000      -1.94100000      -0.13150000
O       -4.58070000      -1.11530000      -0.84590000
C       -1.48220000      -2.21020000      -0.00620000
C       -1.50460000      -2.86930000      -1.38060000
H        0.60860000       1.70820000       0.46470000
H       -0.10350000       1.90150000      -1.13400000
H       -1.16350000       1.78280000       0.29290000
H       -2.96630000      -2.11500000       1.69020000
H       -4.51410000      -2.96130000      -0.01400000
H       -0.86030000      -2.78290000       0.68700000
H       -2.15190000      -2.32630000      -2.07480000
H       -0.49330000      -2.86840000      -1.79550000
H       -1.84820000      -3.90660000      -1.32090000
