16
Properties=species:S:1:pos:R:3 gdb_35678=T pbc="F F F"
N       -0.12710000      -1.13110000      -0.60880000
C       -0.13510000      -0.02850000      -0.26180000
C       -0.14640000       1.35130000       0.20700000
C       -0.44850000       1.50000000       1.72820000
N        0.05680000       2.81800000       2.09670000
C        1.30760000       2.98800000       1.33020000
C        1.21740000       2.07770000       0.04850000
C        1.54900000       4.39460000       1.01340000
N        1.72520000       5.50410000       0.74390000
H       -0.91530000       1.89420000      -0.35330000
H       -1.50940000       1.40750000       1.96520000
H        0.09340000       0.72740000       2.28550000
H       -0.60830000       3.53400000       1.82080000
H        2.14220000       2.63930000       1.94970000
H        2.04360000       1.36490000       0.03380000
H        1.25910000       2.65910000      -0.87270000
