18
Properties=species:S:1:pos:R:3 gdb_37517=T pbc="F F F"
C       -0.07940000       1.43650000       0.06490000
C        1.44670000       1.52430000      -0.01710000
C        1.61620000       0.23770000       0.83750000
C        0.17020000      -0.08460000       0.02310000
N        0.63130000      -0.28230000      -1.38470000
C        1.28130000      -1.61250000      -1.66650000
C        2.36650000      -1.70310000      -0.58440000
C        2.52510000      -0.43260000      -0.17020000
C        1.85470000       0.55200000      -1.17910000
H       -0.45380000       1.76830000       1.03730000
H       -0.68490000       1.85180000      -0.74410000
H        2.02940000       2.43270000       0.12620000
H        1.60930000       0.17490000       1.92420000
H       -0.54800000      -0.82290000       0.38050000
H        0.57520000      -2.44310000      -1.56250000
H        1.61730000      -1.59110000      -2.71030000
H        2.46590000      -2.57930000       0.04940000
H        2.34700000       0.89030000      -2.09110000
