17
Properties=species:S:1:pos:R:3 gdb_4051=T pbc="F F F"
C       -0.01100000       1.46360000       0.05870000
C       -0.00060000      -0.03080000       0.00400000
C       -0.04160000      -0.80240000      -1.08580000
C       -0.01510000      -2.27690000      -0.77470000
C        0.05150000      -2.28450000       0.74040000
C        0.06200000      -0.86220000       1.26980000
N        0.09480000      -3.28960000       1.51670000
O        0.07350000      -4.49320000       0.78460000
H        0.88860000       1.84890000       0.55570000
H       -0.06130000       1.90210000      -0.94150000
H       -0.86680000       1.83370000       0.63760000
H       -0.08950000      -0.42480000      -2.10170000
H       -0.90070000      -2.81920000      -1.13300000
H        0.84510000      -2.80400000      -1.20960000
H        0.96370000      -0.65250000       1.86110000
H       -0.78850000      -0.66800000       1.93730000
H        0.11030000      -5.15490000       1.48330000
