22
Properties=species:S:1:pos:R:3 gdb_59963=T pbc="F F F"
C       -0.00340000      -0.14860000      -1.62660000
C        0.08470000       0.03620000      -0.10890000
C        0.14230000       1.51690000       0.26820000
N       -1.07400000      -0.57960000       0.56870000
H       -1.09730000      -0.26320000       1.53170000
H       -2.63570000      -0.71810000      -0.47830000
C       -1.14640000      -2.04840000       0.52950000
C       -1.53380000      -2.63020000       1.89470000
C       -2.18950000      -2.50610000      -0.51340000
O       -2.98990000      -1.51800000      -0.93300000
O       -2.28960000      -3.64600000      -0.88260000
H        0.87220000       0.29740000      -2.10760000
H       -0.03280000      -1.20400000      -1.91200000
H       -0.89990000       0.33500000      -2.02730000
H        1.01600000      -0.44650000       0.23720000
H        0.23580000       1.65000000       1.35210000
H        1.00380000       1.99940000      -0.20130000
H       -0.76430000       2.03460000      -0.06180000
H       -0.18670000      -2.48550000       0.22450000
H       -0.75540000      -2.42760000       2.63710000
H       -2.47480000      -2.19420000       2.24820000
H       -1.66820000      -3.71030000       1.81170000
