20
Properties=species:S:1:pos:R:3 gdb_99652=T pbc="F F F"
C        0.64260000      -0.48630000       1.19610000
O       -0.07800000      -0.69490000      -0.00180000
C        0.67320000      -0.44600000      -1.17940000
C        1.78880000      -1.39280000      -1.33740000
C        2.69230000      -2.17510000      -1.46780000
C       -0.31140000      -0.55730000      -2.33530000
C       -1.08230000       0.63960000      -2.77160000
N       -0.07950000       0.04200000      -3.64360000
C        1.14030000       0.79050000      -3.91360000
H        1.50380000      -1.16250000       1.27880000
H        1.00310000       0.55140000       1.27370000
H       -0.04910000      -0.68340000       2.01800000
H        1.08870000       0.57340000      -1.13790000
H        3.49180000      -2.86440000      -1.58730000
H       -0.78310000      -1.53690000      -2.37450000
H       -2.11730000       0.54960000      -3.09040000
H       -0.83780000       1.58370000      -2.28360000
H        1.43850000       1.48980000      -3.11620000
H        1.96440000       0.09170000      -4.08370000
H        0.99120000       1.37490000      -4.82700000
