18
Properties=species:S:1:pos:R:3 gdb_44904=T pbc="F F F"
N       -0.05410000       1.26340000       0.00020000
C       -0.03140000       0.00340000      -0.01840000
O        1.10270000      -0.77030000      -0.05660000
C        0.72600000      -2.17020000      -0.12850000
C       -0.66100000      -2.12240000      -0.78310000
C       -1.22790000      -0.93590000       0.01660000
C       -1.42400000      -1.37600000       1.45940000
C       -0.55990000      -2.21670000       2.02990000
C        0.64310000      -2.75150000       1.28950000
H        0.89650000       1.63860000      -0.01080000
H        1.49250000      -2.67110000      -0.72270000
H       -0.58110000      -1.89100000      -1.84910000
H       -1.23130000      -3.04350000      -0.65060000
H       -2.11590000      -0.46680000      -0.40210000
H       -2.26050000      -0.96200000       2.01220000
H       -0.69130000      -2.52920000       3.06220000
H        0.60950000      -3.84890000       1.23750000
H        1.56550000      -2.50060000       1.82890000
