21
Properties=species:S:1:pos:R:3 gdb_83702=T pbc="F F F"
C       -0.64790000       1.37320000       0.15750000
C       -0.04620000      -0.02970000      -0.00370000
C        0.83070000      -0.17700000      -1.26330000
O        1.57340000       1.01890000      -1.60670000
C        2.83820000       0.34420000      -1.44170000
C        2.13800000      -0.90410000      -0.85400000
C        2.04590000      -0.95150000       0.64360000
C        0.89450000      -0.46400000       1.11670000
C        0.49640000      -0.36490000       2.55620000
H        0.14080000       2.12830000       0.18360000
H       -1.31070000       1.60970000      -0.68090000
H       -1.23700000       1.44450000       1.07680000
H       -0.87830000      -0.74910000      -0.06380000
H        0.28020000      -0.55360000      -2.13300000
H        3.33540000       0.17830000      -2.40700000
H        3.51420000       0.89020000      -0.77330000
H        2.38810000      -1.85880000      -1.32360000
H        2.85060000      -1.33300000       1.26480000
H        1.26400000      -0.78010000       3.21480000
H        0.32250000       0.67630000       2.85360000
H       -0.44230000      -0.90230000       2.74490000
