16
Properties=species:S:1:pos:R:3 gdb_25799=T pbc="F F F"
C       -0.16360000       1.50880000       0.08310000
C        0.02540000       0.00700000       0.00670000
O        1.12020000      -0.51970000      -0.03750000
C       -1.18390000      -0.82320000      -0.01320000
C       -1.38510000      -2.16950000      -0.07550000
N       -2.73720000      -2.43820000      -0.06570000
C       -3.30470000      -1.26700000       0.00110000
C       -4.75480000      -0.95040000       0.04120000
O       -2.43020000      -0.23630000       0.03660000
H        0.81460000       1.98980000       0.09080000
H       -0.74970000       1.86620000      -0.77020000
H       -0.72150000       1.78060000       0.98540000
H       -0.64020000      -2.94710000      -0.12610000
H       -5.01160000      -0.40710000       0.95630000
H       -5.04170000      -0.32120000      -0.80750000
H       -5.32120000      -1.88080000       0.00550000
