15
Properties=species:S:1:pos:R:3 gdb_9226=T pbc="F F F"
O        0.42960000       0.11000000       0.85380000
C       -0.18350000       0.23000000      -0.42200000
C       -1.53510000      -0.48270000      -0.54470000
O       -2.25990000      -0.31060000      -1.50690000
N       -1.81730000      -1.31670000       0.49450000
C       -3.02840000      -2.10100000       0.54940000
C       -2.77000000      -3.58930000       0.35950000
O       -3.40000000      -4.45630000       0.90310000
H        0.07380000       0.79920000       1.42320000
H       -0.32810000       1.27200000      -0.72830000
H        0.49620000      -0.22820000      -1.14840000
H       -1.11940000      -1.38310000       1.22060000
H       -3.57960000      -1.95040000       1.48300000
H       -3.65460000      -1.75920000      -0.28530000
H       -1.93600000      -3.81450000      -0.34420000
