16
Properties=species:S:1:pos:R:3 gdb_99834=T pbc="F F F"
N        0.05160000       1.25570000       0.06940000
C        0.04270000      -0.08900000       0.18130000
O        1.03650000      -0.77410000       0.34460000
C       -1.35240000      -0.78400000       0.12380000
O       -1.11570000      -2.17410000       0.18250000
C       -2.19460000      -0.41140000       1.37640000
O       -1.54060000      -0.82900000       2.54480000
C       -2.06540000      -0.39080000      -1.09500000
C       -2.68210000      -0.02550000      -2.06050000
H        0.94270000       1.72430000       0.03460000
H       -0.76210000       1.74450000      -0.26440000
H       -0.14140000      -2.24650000       0.18660000
H       -2.33380000       0.67140000       1.44010000
H       -3.18200000      -0.88080000       1.25460000
H       -1.30740000      -1.75450000       2.39090000
H       -3.21900000       0.27380000      -2.92720000
