16
Properties=species:S:1:pos:R:3 gdb_33958=T pbc="F F F"
N        0.07720000      -1.15760000      -0.06210000
C        0.06850000      -0.00250000       0.01320000
C        0.04110000       1.42780000       0.10570000
N        0.28750000       2.24670000      -1.10700000
C        1.28960000       2.25840000      -0.03980000
C        1.20640000       3.43850000       0.92910000
C       -0.13470000       3.29920000       1.65200000
N       -1.31960000       3.42650000       0.78600000
C       -0.84250000       2.08670000       1.15580000
H        0.59680000       1.63680000      -1.86190000
H        2.25000000       1.78590000      -0.22120000
H        2.02370000       3.36800000       1.65400000
H        1.29330000       4.39440000       0.40490000
H       -0.20590000       3.61620000       2.68780000
H       -2.13340000       3.65690000       1.35160000
H       -1.44060000       1.44550000       1.79240000
