18
Properties=species:S:1:pos:R:3 gdb_52452=T pbc="F F F"
N       -0.33480000       1.22290000       0.41460000
C       -0.18250000      -0.00180000       0.15620000
O       -1.25140000      -0.82400000       0.14030000
C       -0.98430000      -2.19960000      -0.12150000
C       -2.32370000      -2.92100000      -0.17960000
C       -2.15610000      -4.41420000      -0.44080000
O       -3.43560000      -5.03520000      -0.59660000
C       -3.87980000      -5.83340000       0.39430000
O       -4.94400000      -6.37090000       0.36280000
H        0.56300000       1.70110000       0.37970000
H        0.76560000      -0.50880000      -0.07320000
H       -0.44430000      -2.30600000      -1.07320000
H       -0.34930000      -2.61660000       0.67370000
H       -2.85620000      -2.76700000       0.76500000
H       -2.93830000      -2.48110000      -0.97090000
H       -1.61000000      -4.59510000      -1.37220000
H       -1.60050000      -4.89930000       0.37340000
H       -3.14930000      -5.93470000       1.22180000
