27
Properties=species:S:1:pos:R:3 gdb_100293=T pbc="F F F"
C       -0.09550000       1.58570000       0.20360000
C        0.06770000       0.06830000       0.04770000
C        0.69210000      -0.44070000      -1.28150000
C       -0.06880000       0.11700000      -2.49970000
C        2.14260000       0.06370000      -1.38330000
O        2.91390000      -0.49650000      -0.32650000
C        0.66900000      -2.01210000      -1.26410000
C       -0.74080000      -2.60490000      -1.43690000
C        1.61810000      -2.66620000      -2.28320000
H        0.86230000       2.11380000       0.16440000
H       -0.74580000       2.01430000      -0.56540000
H       -0.54680000       1.81430000       1.17450000
H        0.68910000      -0.30520000       0.86850000
H       -0.91830000      -0.39240000       0.17120000
H        0.09760000       1.19270000      -2.61620000
H        0.25360000      -0.36300000      -3.42940000
H       -1.14700000      -0.03790000      -2.40220000
H        2.56090000      -0.20980000      -2.36290000
H        2.15010000       1.16210000      -1.32960000
H        3.80620000      -0.14430000      -0.38550000
H        1.02920000      -2.30410000      -0.27080000
H       -1.47150000      -2.17740000      -0.74510000
H       -1.11900000      -2.45760000      -2.45440000
H       -0.71550000      -3.68460000      -1.25560000
H        2.66280000      -2.43470000      -2.06540000
H        1.50790000      -3.75530000      -2.24720000
H        1.39880000      -2.35680000      -3.31180000
