15
Properties=species:S:1:pos:R:3 gdb_2068=T pbc="F F F"
N       -0.07200000       1.31500000      -0.19750000
C       -0.01140000       0.07570000       0.04950000
C       -1.27010000      -0.77190000       0.11250000
N       -1.20820000      -1.92930000       1.00520000
C        0.03260000      -2.66580000       0.77790000
C        1.25930000      -1.77860000       0.94820000
O        1.18540000      -0.57650000       0.16360000
H        0.87120000       1.70770000      -0.25120000
H       -2.10570000      -0.12490000       0.38200000
H       -1.46380000      -1.14200000      -0.90440000
H       -1.24060000      -1.61340000       1.97110000
H        0.09380000      -3.51340000       1.46880000
H        0.00440000      -3.07180000      -0.24140000
H        1.37310000      -1.49600000       2.00540000
H        2.17770000      -2.28130000       0.63060000
