18
Properties=species:S:1:pos:R:3 gdb_27532=T pbc="F F F"
C       -0.11100000       1.45020000      -0.02120000
C       -0.04120000      -0.04020000      -0.03390000
N       -0.15930000      -0.81090000      -1.09360000
C       -0.02870000      -2.11200000      -0.64620000
C        0.17740000      -2.12070000       0.70760000
N        0.16210000      -0.79200000       1.08750000
C       -0.09790000      -3.24610000      -1.58630000
C       -1.03620000      -3.19030000      -2.74190000
N        0.41060000      -3.06380000      -2.96190000
H        0.81830000       1.89970000       0.34760000
H       -0.28080000       1.79990000      -1.04010000
H       -0.92900000       1.81570000       0.61010000
H        0.32820000      -2.91750000       1.41650000
H        0.28980000      -0.44380000       2.02270000
H        0.13460000      -4.21570000      -1.15300000
H       -1.48170000      -4.10670000      -3.12020000
H       -1.65060000      -2.29900000      -2.82850000
H        0.62970000      -2.07420000      -3.07080000
