19
Properties=species:S:1:pos:R:3 gdb_79353=T pbc="F F F"
C       -0.11650000       1.50230000      -0.02540000
C        0.04460000      -0.01930000      -0.05070000
C        0.98410000      -0.48750000      -1.15700000
C        2.32520000      -0.66920000      -0.45850000
O        2.18910000      -0.32280000       0.90100000
C        0.80280000      -0.56940000       1.18320000
C        0.62590000      -2.08150000       1.28980000
O        0.91330000      -2.71200000       0.03970000
C        1.53880000      -1.87520000      -0.89590000
H        0.85210000       1.98830000       0.12610000
H       -0.53690000       1.86890000      -0.96740000
H       -0.78530000       1.81530000       0.78350000
H       -0.93650000      -0.50230000      -0.12460000
H        0.88190000      -0.09500000      -2.16240000
H        3.29230000      -0.40530000      -0.86850000
H        0.55570000      -0.07240000       2.12410000
H        1.30690000      -2.46730000       2.06030000
H       -0.40280000      -2.34350000       1.56900000
H        1.89930000      -2.45790000      -1.73640000
