13
Properties=species:S:1:pos:R:3 gdb_28247=T pbc="F F F"
N        0.07720000       1.29300000       0.05650000
C       -0.03750000      -0.06850000      -0.01190000
N       -1.14090000      -0.77520000      -0.00300000
C       -0.64960000      -2.04270000       0.18940000
C        0.68180000      -2.04930000       0.28660000
O        1.23440000      -3.25550000      -0.06070000
C        0.06470000      -4.09280000       0.13650000
O       -1.12350000      -3.29940000      -0.08270000
O        1.14360000      -0.77550000       0.09760000
H        0.88350000       1.67820000      -0.41530000
H       -0.78690000       1.76570000      -0.16530000
H        0.09070000      -4.91930000      -0.57280000
H        0.06370000      -4.43600000       1.18130000
