22
Properties=species:S:1:pos:R:3 gdb_26256=T pbc="F F F"
C       -0.06060000       1.57770000       0.03920000
C        0.04420000       0.04690000      -0.02750000
C       -1.35270000      -0.59520000       0.11580000
C        0.73900000      -0.40590000      -1.28360000
C        0.80100000       0.17340000      -2.53550000
C        1.54760000      -0.68780000      -3.38370000
C        1.92380000      -1.76960000      -2.62680000
N        1.43080000      -1.60170000      -1.35310000
C        1.67340000      -2.51720000      -0.25810000
H        0.92340000       2.04760000      -0.04050000
H       -0.68510000       1.96440000      -0.77300000
H       -0.51860000       1.88970000       0.98330000
H        0.64530000      -0.27680000       0.83390000
H       -2.00110000      -0.27890000      -0.70780000
H       -1.30190000      -1.68800000       0.09280000
H       -1.82540000      -0.29860000       1.05880000
H        0.35630000       1.11710000      -2.81200000
H        1.78280000      -0.53020000      -4.42500000
H        2.50410000      -2.64470000      -2.87430000
H        2.24550000      -2.04080000       0.54580000
H        0.73870000      -2.89990000       0.16430000
H        2.25150000      -3.36410000      -0.63150000
