17
Properties=species:S:1:pos:R:3 gdb_34589=T pbc="F F F"
N        0.01510000      -1.14220000       0.00630000
C       -0.02620000       0.01510000       0.04070000
C       -0.03600000       1.43600000       0.08380000
C       -1.13410000       2.20350000       0.03500000
C       -0.80040000       3.66820000       0.07140000
C        0.70580000       3.68050000       0.37550000
C        1.53670000       4.89310000       0.20200000
N        1.22460000       4.39010000       1.55390000
C        1.23710000       2.25760000       0.16060000
H       -2.14630000       1.82580000      -0.04300000
H       -1.03410000       4.14300000      -0.89220000
H       -1.38170000       4.21000000       0.82900000
H        2.58000000       4.80260000      -0.08950000
H        1.05010000       5.80170000      -0.14550000
H        0.49300000       4.95870000       1.97480000
H        1.89030000       1.95600000       0.98440000
H        1.81410000       2.16230000      -0.76780000
