26
Properties=species:S:1:pos:R:3 gdb_10224=T pbc="F F F"
C       -1.91430000       1.52970000       1.55240000
C       -1.81570000       0.00280000       1.48470000
C       -1.43450000      -0.50930000       0.08980000
C       -1.33040000      -2.04380000      -0.03590000
C       -2.72880000      -2.69690000      -0.05930000
C       -2.73760000      -4.19970000       0.24120000
C       -0.50880000      -2.44670000      -1.27870000
C        1.00040000      -2.21380000      -1.15180000
H       -2.17500000       1.87030000       2.55950000
H       -0.96390000       2.00090000       1.27730000
H       -2.67930000       1.90800000       0.86490000
H       -1.06910000      -0.34760000       2.20980000
H       -2.77120000      -0.43310000       1.80120000
H       -2.16450000      -0.14320000      -0.64720000
H       -0.47680000      -0.05230000      -0.18880000
H       -0.79910000      -2.41920000       0.85310000
H       -3.37670000      -2.19620000       0.66910000
H       -3.18500000      -2.51300000      -1.04220000
H       -2.14020000      -4.76940000      -0.47760000
H       -2.33310000      -4.40220000       1.23930000
H       -3.75580000      -4.60050000       0.20890000
H       -0.67600000      -3.50780000      -1.49640000
H       -0.89650000      -1.89790000      -2.14840000
H        1.24440000      -1.16150000      -0.97440000
H        1.41820000      -2.79320000      -0.32070000
H        1.52290000      -2.51980000      -2.06390000
