21
Properties=species:S:1:pos:R:3 gdb_109096=T pbc="F F F"
C       -0.27500000       1.50280000       0.02280000
C        0.02870000      -0.00730000       0.03200000
C        0.81850000      -0.46630000      -1.16680000
C        2.06830000      -0.94580000      -1.05490000
C        2.95440000      -1.37540000      -2.13060000
C        2.66970000      -1.65550000      -3.41150000
C        1.33170000      -1.71190000      -4.08870000
O        0.20140000      -1.57590000      -3.26330000
C        0.14190000      -0.36600000      -2.51750000
H        0.65150000       2.08530000       0.02760000
H       -0.84790000       1.79480000      -0.86370000
H       -0.86140000       1.78610000       0.90240000
H        0.57340000      -0.26100000       0.94760000
H       -0.92310000      -0.55680000       0.06940000
H        2.50360000      -0.99060000      -0.05820000
H        4.00020000      -1.45670000      -1.84010000
H        3.49650000      -1.91330000      -4.07210000
H        1.31300000      -0.97450000      -4.91410000
H        1.21730000      -2.69600000      -4.56370000
H       -0.92320000      -0.14550000      -2.38730000
H        0.57700000       0.46040000      -3.10250000
