17
Properties=species:S:1:pos:R:3 gdb_97345=T pbc="F F F"
C       -0.77920000       1.79180000       0.18460000
N       -0.83380000       0.42120000       0.65160000
C       -0.28860000      -0.46340000      -0.06750000
N       -0.30710000      -1.79800000       0.32840000
C        0.25660000      -2.81820000      -0.40370000
O        0.83410000      -2.63920000      -1.45730000
C        0.12460000      -4.20530000       0.21060000
C        1.48270000      -4.89580000       0.28400000
O        1.82970000      -5.57750000       1.21030000
H       -0.25370000       1.91500000      -0.77480000
H       -1.79800000       2.18090000       0.07640000
H       -0.28110000       2.41360000       0.93700000
H        0.22720000      -0.30630000      -1.01870000
H       -0.77270000      -1.99300000       1.20270000
H       -0.34620000      -4.22400000       1.19590000
H       -0.49170000      -4.79590000      -0.48070000
H        2.12390000      -4.72000000      -0.60300000
