16
Properties=species:S:1:pos:R:3 gdb_105145=T pbc="F F F"
O        0.10900000       1.36100000      -0.40190000
C        0.02400000       0.05840000       0.13320000
C       -1.39580000      -0.50060000       0.03960000
C       -1.83740000      -1.12830000      -1.25960000
C       -1.60020000      -2.02400000      -0.06100000
C       -0.46610000      -2.90420000      -0.02300000
N        0.44610000      -3.61530000       0.01130000
C       -2.36290000       0.23130000       0.81310000
C       -3.13150000       0.88670000       1.46680000
H       -0.46790000       1.92930000       0.12130000
H        0.70410000      -0.56510000      -0.45300000
H        0.35580000       0.02200000       1.18080000
H       -2.86500000      -0.99590000      -1.57410000
H       -1.10570000      -1.15780000      -2.05830000
H       -2.47830000      -2.41160000       0.44290000
H       -3.82340000       1.44950000       2.04400000
