15
Properties=species:S:1:pos:R:3 gdb_21221=T pbc="F F F"
C       -0.00260000       1.42060000      -0.06450000
N       -0.02970000      -0.03020000      -0.02740000
C       -1.21750000      -0.69110000       0.03260000
N       -2.36510000      -0.11010000       0.31300000
O       -3.26420000      -1.20670000       0.31580000
C       -2.54750000      -2.29300000       0.02150000
C       -3.25500000      -3.59870000      -0.05050000
N       -1.28460000      -2.05690000      -0.16760000
H        1.03560000       1.75610000      -0.02410000
H       -0.47990000       1.83510000      -0.96330000
H       -0.53110000       1.81590000       0.80690000
H        0.68590000      -0.52630000      -0.53380000
H       -4.04830000      -3.56560000      -0.80320000
H       -2.54280000      -4.38180000      -0.30890000
H       -3.72140000      -3.83590000       0.91040000
