14
Properties=species:S:1:pos:R:3 gdb_25258=T pbc="F F F"
O        0.01430000      -0.06310000       0.00390000
C        0.04010000       1.14700000       0.00910000
N       -1.05840000       1.99990000       0.02880000
C       -0.75510000       3.43030000       0.03070000
C        0.74520000       3.40160000       0.00940000
C        1.15770000       2.11040000      -0.00230000
O        2.50190000       2.00770000      -0.02170000
C        2.95450000       3.29590000      -0.02230000
C        1.92690000       4.19880000      -0.00370000
H       -1.99290000       1.62860000       0.03970000
H       -1.18130000       3.93440000      -0.84700000
H       -1.15630000       3.92680000       0.92430000
H        4.02640000       3.40780000      -0.03690000
H        2.02900000       5.27260000      -0.00030000
