18
Properties=species:S:1:pos:R:3 gdb_126232=T pbc="F F F"
C        0.09690000       1.59390000      -0.20310000
C        0.03490000       0.09770000       0.15100000
C       -1.35370000      -0.46660000       0.12380000
C       -2.13130000      -0.94230000       1.16710000
N       -1.84800000      -1.15370000       2.52060000
N       -3.34050000      -1.28130000       0.65360000
N       -3.40610000      -1.09020000      -0.70350000
C       -2.21770000      -0.59940000      -0.99460000
O       -1.88430000      -0.24310000      -2.25660000
H        1.12960000       1.95800000      -0.19540000
H       -0.31940000       1.76670000      -1.19920000
H       -0.48190000       2.18980000       0.50990000
H        0.67460000      -0.45830000      -0.54620000
H        0.47750000      -0.05880000       1.14360000
H       -0.91110000      -0.85140000       2.75390000
H       -2.50480000      -0.69060000       3.13890000
H       -4.04930000      -1.83460000       1.10160000
H       -2.65290000      -0.42780000      -2.81120000
