21
Properties=species:S:1:pos:R:3 gdb_115514=T pbc="F F F"
C        0.30320000       1.11500000       0.35050000
O        0.07850000      -0.22100000      -0.03250000
C        0.43050000      -0.50530000      -1.37640000
C        1.94280000      -0.71580000      -1.56570000
O        2.16740000      -2.08350000      -1.23920000
C        1.08310000      -2.82540000      -1.76040000
C       -0.13920000      -1.89110000      -1.73080000
O        1.29550000      -3.20870000      -3.09720000
C        2.37030000      -4.11610000      -3.25860000
H        1.36750000       1.39320000       0.32050000
H       -0.25200000       1.81940000      -0.28960000
H       -0.05050000       1.21900000       1.37920000
H        0.04780000       0.28810000      -2.03490000
H        2.23140000      -0.50630000      -2.60580000
H        2.55570000      -0.10560000      -0.89860000
H        0.99390000      -3.71860000      -1.12680000
H       -0.86100000      -2.18640000      -0.96820000
H       -0.62640000      -1.90130000      -2.70650000
H        3.31770000      -3.68330000      -2.91720000
H        2.19160000      -5.04930000      -2.70240000
H        2.43810000      -4.34670000      -4.32410000
