20
Properties=species:S:1:pos:R:3 gdb_36654=T pbc="F F F"
N       -0.09560000      -1.11050000      -0.05370000
C       -0.01300000       0.03390000       0.08490000
C        0.11640000       1.47980000       0.24850000
C        1.44690000       2.02730000      -0.31360000
C        1.53710000       3.52900000      -0.13950000
C        1.90640000       4.23570000       1.14150000
C        3.01480000       3.49580000       1.90450000
C        3.93380000       3.59880000       0.64430000
C        2.80900000       4.33210000      -0.09930000
H       -0.73280000       1.96320000      -0.24890000
H        0.03310000       1.72230000       1.31390000
H        2.27530000       1.51820000       0.18550000
H        1.52020000       1.76880000      -1.37600000
H        0.74950000       4.06080000      -0.67320000
H        1.26170000       4.99390000       1.57070000
H        3.40440000       4.07760000       2.74210000
H        2.77550000       2.49210000       2.27140000
H        4.79850000       4.24060000       0.82420000
H        4.28980000       2.66390000       0.20020000
H        2.95570000       5.17280000      -0.76740000
