14
Properties=species:S:1:pos:R:3 gdb_20504=T pbc="F F F"
C        0.01510000       1.44770000       0.01020000
C        0.01350000      -0.00640000       0.00250000
C        0.02380000      -1.21200000      -0.00400000
C       -0.00590000      -2.62940000      -0.01130000
N        1.12060000      -3.35850000      -0.02250000
N        0.69090000      -4.62970000      -0.02650000
C       -0.66030000      -4.74720000      -0.01840000
C       -1.15580000      -3.46510000      -0.00840000
H        1.03800000       1.83980000       0.00420000
H       -0.50080000       1.85260000      -0.86790000
H       -0.48670000       1.84320000       0.90070000
H        1.37350000      -5.36840000      -0.03480000
H       -1.14730000      -5.70940000      -0.02040000
H       -2.18760000      -3.15690000      -0.00010000
