14
Properties=species:S:1:pos:R:3 gdb_133284=T pbc="F F F"
C        0.02590000       1.44750000       0.00680000
N        0.08030000      -0.00230000       0.00270000
C       -1.01450000      -0.65660000       0.00920000
N       -2.30960000      -0.08340000       0.02030000
N       -3.49260000      -0.71360000       0.02750000
N       -3.51930000      -1.98310000       0.02440000
C       -2.31890000      -2.66130000       0.01370000
F       -2.48050000      -3.97090000       0.01150000
C       -1.09630000      -2.09880000       0.00610000
H        1.04350000       1.84450000      -0.00010000
H       -0.48880000       1.85910000      -0.87760000
H       -0.47480000       1.85450000       0.90140000
H       -2.41320000       0.91990000       0.02380000
H       -0.18360000      -2.67850000      -0.00220000
