21
Properties=species:S:1:pos:R:3 gdb_74032=T pbc="F F F"
C        0.02900000       1.46890000      -0.05090000
C       -0.04730000      -0.02300000       0.10090000
C       -1.16310000      -0.74270000       0.12100000
C       -2.61850000      -0.58620000      -0.27170000
C       -2.51540000      -2.04300000      -0.84700000
C       -1.21590000      -2.24830000      -0.00440000
C        0.10380000      -2.75050000      -0.57020000
O        1.15230000      -2.19210000       0.21700000
C        1.26600000      -0.78010000       0.13770000
H        0.61490000       1.75220000      -0.93520000
H       -0.96540000       1.91240000      -0.14590000
H        0.52190000       1.93480000       0.81240000
H       -3.29640000      -0.54000000       0.58830000
H       -2.88270000       0.21870000      -0.96330000
H       -3.35110000      -2.71840000      -0.65150000
H       -2.30510000      -2.03350000      -1.92010000
H       -1.43750000      -2.75080000       0.94480000
H        0.23080000      -3.83520000      -0.50580000
H        0.20240000      -2.45130000      -1.62690000
H        1.85010000      -0.49590000      -0.75870000
H        1.86850000      -0.48520000       1.00690000
