21
Properties=species:S:1:pos:R:3 gdb_42035=T pbc="F F F"
C        0.01640000       1.56220000       0.09690000
O        1.39620000       1.89440000      -0.13990000
C        2.22480000       0.73820000       0.02740000
C        1.32120000      -0.28420000       0.70520000
O        1.68520000      -1.63090000       0.53100000
C        0.73370000      -2.47170000       1.18170000
C       -0.70640000      -2.25040000       0.69100000
C       -1.12540000      -0.76540000       0.76130000
C       -0.03330000       0.04040000       0.06710000
H       -0.30120000       1.96010000       1.07350000
H       -0.59220000       2.03970000      -0.67790000
H        2.56750000       0.35570000      -0.94510000
H        3.10100000       1.01630000       0.62140000
H        1.26310000      -0.05550000       1.78590000
H        1.05550000      -3.49860000       0.98890000
H        0.78280000      -2.30130000       2.27110000
H       -0.78150000      -2.59500000      -0.34750000
H       -1.38090000      -2.87550000       1.28680000
H       -2.10760000      -0.62330000       0.29780000
H       -1.21550000      -0.44680000       1.80890000
H        0.03030000      -0.28520000      -0.98080000
