20
Properties=species:S:1:pos:R:3 gdb_11748=T pbc="F F F"
C        0.04030000       1.50980000      -0.26610000
C        0.04260000       0.02110000       0.10900000
C       -1.33970000      -0.53170000       0.26670000
C       -2.37010000      -0.26060000       1.38040000
C       -2.97760000      -1.68920000       1.10950000
C       -4.44060000      -1.78940000       0.70340000
C       -1.92380000      -1.85740000      -0.00120000
O       -2.10700000      -0.77610000      -0.92810000
H        1.06090000       1.88580000      -0.38240000
H       -0.49220000       1.66770000      -1.20850000
H       -0.45290000       2.11240000       0.50380000
H        0.56130000      -0.55840000      -0.66300000
H        0.59330000      -0.12740000       1.04660000
H       -1.92800000      -0.17000000       2.37600000
H       -3.03240000       0.58920000       1.19600000
H       -2.75690000      -2.35580000       1.94980000
H       -4.63120000      -1.16370000      -0.17300000
H       -4.71430000      -2.82070000       0.45370000
H       -5.09940000      -1.45660000       1.51260000
H       -1.47770000      -2.76640000      -0.39230000
