17
Properties=species:S:1:pos:R:3 gdb_56925=T pbc="F F F"
C       -0.31690000       1.30680000       0.10120000
C        0.19000000      -0.11160000      -0.23350000
C        1.02480000      -0.12180000      -1.43330000
C        1.73340000      -0.11370000      -2.40410000
C        0.97050000      -0.68340000       0.94170000
O        0.22130000      -0.99410000       2.10910000
C        0.83400000      -2.08540000       1.39190000
C       -0.03850000      -3.02760000       0.74520000
C       -0.74350000      -3.84320000       0.21350000
H        0.52110000       1.98780000       0.27740000
H       -0.91050000       1.70550000      -0.72490000
H       -0.93720000       1.27250000       1.00060000
H       -0.67630000      -0.76270000      -0.39920000
H        2.34730000      -0.11690000      -3.27050000
H        1.92670000      -0.19330000       1.13410000
H        1.68140000      -2.52950000       1.91340000
H       -1.37060000      -4.55960000      -0.25750000
