18
Properties=species:S:1:pos:R:3 gdb_102975=T pbc="F F F"
O        0.22080000       1.21930000      -0.28030000
C        0.11510000      -0.10580000       0.20840000
C       -1.32660000      -0.65670000       0.13660000
C       -1.40140000      -2.13490000       0.54890000
N       -2.71710000      -2.71320000       0.35830000
C       -2.99230000      -3.59200000      -0.63930000
O       -2.18660000      -4.01670000      -1.44290000
C       -2.25840000       0.21900000       0.95350000
O       -3.10340000      -0.20220000       1.70930000
H        0.11360000       1.19640000      -1.23680000
H        0.78780000      -0.79320000      -0.32420000
H        0.45220000      -0.06780000       1.25030000
H       -1.65540000      -0.56650000      -0.91140000
H       -0.71030000      -2.72510000      -0.05710000
H       -1.10980000      -2.23520000       1.60080000
H       -3.46020000      -2.35590000       0.93850000
H       -4.05810000      -3.89370000      -0.63660000
H       -2.10550000       1.30860000       0.81770000
