19
Properties=species:S:1:pos:R:3 gdb_114051=T pbc="F F F"
C        0.10810000       1.21830000      -0.16400000
O       -0.00370000      -0.08740000       0.36640000
C       -1.28130000      -0.67190000       0.16420000
C       -1.62290000      -1.21730000      -1.26710000
C       -1.74900000      -2.61590000      -0.65480000
O       -2.75860000      -3.50720000      -0.96630000
C       -0.46830000      -3.00830000       0.01570000
O        0.80340000      -2.66390000      -0.44530000
C       -1.39060000      -2.07010000       0.75200000
H        1.11200000       1.57990000       0.06900000
H       -0.03320000       1.23220000      -1.25400000
H       -0.63020000       1.89440000       0.29190000
H       -2.05800000       0.01010000       0.53400000
H       -2.57380000      -0.83580000      -1.64290000
H       -0.84440000      -1.09920000      -2.02670000
H       -2.41590000      -4.14030000      -1.60680000
H       -0.49820000      -4.02230000       0.41130000
H        0.96180000      -1.74850000      -0.17560000
H       -1.79500000      -2.30430000       1.72920000
