17
Properties=species:S:1:pos:R:3 gdb_35490=T pbc="F F F"
N       -0.10350000      -1.20880000      -0.15080000
C       -0.05630000      -0.05550000      -0.07490000
C       -0.00400000       1.40170000       0.02500000
C       -0.62430000       1.97320000       1.36240000
N        0.50280000       2.40970000       2.19180000
C        1.42050000       1.23680000       2.45910000
C        2.29630000       1.66020000       1.28940000
C        1.41680000       1.97630000       0.08490000
C        1.50670000       2.94680000       1.22550000
H       -0.53410000       1.80590000      -0.84360000
H       -1.24380000       2.84170000       1.11970000
H       -1.23980000       1.24270000       1.89130000
H        1.91430000       1.36400000       3.42590000
H        0.94070000       0.25330000       2.42400000
H        3.36210000       1.50360000       1.17980000
H        1.93880000       2.18650000      -0.84070000
H        1.78220000       3.99240000       1.18450000
