15
Properties=species:S:1:pos:R:3 gdb_68723=T pbc="F F F"
C       -0.02610000       1.52690000       0.03850000
C       -0.04410000       0.03090000       0.03160000
N        1.15750000      -0.72280000      -0.30740000
C        0.57360000      -0.95260000       1.02490000
C        1.35410000      -0.68750000       2.19300000
N        1.96240000      -0.48720000       3.15590000
C       -0.68730000      -1.80760000       0.94450000
O       -1.81840000      -1.00340000       1.28960000
C       -1.27610000      -0.87400000      -0.02980000
H        0.94640000       1.89410000       0.37350000
H       -0.20930000       1.91770000      -0.96830000
H       -0.80250000       1.91150000       0.70540000
H        0.98010000      -1.51220000      -0.92650000
H       -0.77970000      -2.88210000       1.04270000
H       -1.93520000      -1.06870000      -0.86750000
