18
Properties=species:S:1:pos:R:3 gdb_78402=T pbc="F F F"
C       -0.04260000       1.43160000       0.07860000
C        0.06980000      -0.07750000       0.01910000
C        0.70470000      -0.65630000      -1.22550000
C        1.45080000      -0.66040000       0.11510000
N        1.44150000      -2.15010000       0.13040000
C        0.77490000      -2.19540000      -1.21120000
C       -0.34490000      -3.09770000      -0.63430000
C        0.34090000      -2.84110000       0.73340000
O        0.07060000      -3.04150000       1.87920000
H        0.82480000       1.91310000      -0.38560000
H       -0.93670000       1.78060000      -0.44850000
H       -0.10320000       1.77800000       1.11500000
H       -0.75130000      -0.60230000       0.50200000
H        0.88970000      -0.04430000      -2.09950000
H        2.31880000      -0.10740000       0.45260000
H        1.38040000      -2.61740000      -2.01600000
H       -1.36820000      -2.71880000      -0.67870000
H       -0.33060000      -4.13420000      -0.97940000
