17
Properties=species:S:1:pos:R:3 gdb_13545=T pbc="F F F"
C       -0.80160000       1.11890000       0.28000000
C       -0.14830000      -0.24120000       0.20290000
N        1.20130000      -0.31050000      -0.37770000
C        1.01350000      -0.68340000       1.02680000
C        1.68460000       0.20310000       2.07450000
N        1.05330000       0.19200000       3.39870000
C        3.09550000      -0.19540000       2.21440000
N        4.19060000      -0.54970000       2.31170000
H       -0.07910000       1.90270000       0.51860000
H       -1.25310000       1.37470000      -0.68410000
H       -1.59730000       1.13170000       1.03330000
H       -0.83580000      -1.04380000      -0.06390000
H        1.32210000      -1.13070000      -0.96410000
H        1.04880000      -1.74230000       1.28300000
H        1.68140000       1.23390000       1.70560000
H        0.07880000       0.46070000       3.29730000
H        1.05900000      -0.75130000       3.77700000
