15
Properties=species:S:1:pos:R:3 gdb_69758=T pbc="F F F"
C       -0.06870000       1.54640000       0.07870000
C        0.14590000       0.07260000      -0.00200000
O       -0.77920000      -0.80460000       0.64270000
C        0.60620000      -0.95070000       0.96290000
C        1.25670000      -1.77970000      -0.18130000
O        0.39700000      -2.79430000      -0.77210000
C       -0.09700000      -1.90100000      -1.70820000
O       -0.88120000      -2.11720000      -2.57010000
C        0.76440000      -0.73330000      -1.19510000
H        0.84230000       2.08810000      -0.19370000
H       -0.86530000       1.85610000      -0.60630000
H       -0.35950000       1.82990000       1.09350000
H        0.88850000      -0.89180000       2.00760000
H        2.28910000      -2.10440000      -0.07460000
H        1.41440000      -0.21050000      -1.89240000
