22
Properties=species:S:1:pos:R:3 gdb_101404=T pbc="F F F"
C        0.04570000       1.54580000       0.17260000
C       -0.06070000       0.02030000       0.08010000
C       -1.49580000      -0.50730000      -0.09310000
C       -2.14830000      -0.08090000      -1.41580000
C       -1.50990000      -2.03630000       0.02070000
N       -1.06370000      -2.60280000       1.32990000
C       -2.26920000      -3.46350000       1.46420000
C       -2.86430000      -2.73240000       0.25180000
O       -3.94030000      -2.68680000      -0.26680000
H        1.08060000       1.85350000       0.35200000
H       -0.28790000       2.03680000      -0.74650000
H       -0.56280000       1.93370000       0.99720000
H        0.55530000      -0.34130000      -0.75600000
H        0.35580000      -0.42390000       0.99160000
H       -2.09860000      -0.11860000       0.73980000
H       -3.14280000      -0.52290000      -1.52030000
H       -2.25210000       1.00570000      -1.47600000
H       -1.54360000      -0.40570000      -2.27160000
H       -0.99660000      -2.47530000      -0.85100000
H       -0.19750000      -3.12460000       1.27580000
H       -2.11970000      -4.53390000       1.26540000
H       -2.80720000      -3.35590000       2.41240000
