13
Properties=species:S:1:pos:R:3 gdb_48238=T pbc="F F F"
N        0.23290000       0.95920000      -0.13100000
C       -0.00590000      -0.26010000      -0.37020000
N       -1.27210000      -0.81300000      -0.06240000
C       -2.37290000       0.09160000       0.10430000
O       -3.44330000      -0.22110000       0.53180000
C       -1.46800000      -2.20160000       0.03510000
O       -2.52950000      -2.75350000      -0.10210000
C       -0.26620000      -3.07960000       0.43030000
O        0.82260000      -2.68870000       0.75120000
H        1.15800000       1.21480000      -0.47120000
H        0.67260000      -0.96600000      -0.84410000
H       -2.07680000       1.10390000      -0.20100000
H       -0.56190000      -4.14670000       0.42090000
