19
Properties=species:S:1:pos:R:3 gdb_99089=T pbc="F F F"
C        0.32150000       1.43770000       0.20590000
N        0.36620000      -0.00100000       0.01960000
C        0.67580000      -0.57890000      -1.17400000
O        0.97080000       0.04290000      -2.17570000
C        0.59280000      -2.12080000      -1.16110000
N        1.29980000      -2.73020000      -2.25280000
C        2.75080000      -2.64390000      -2.27700000
C        0.62870000      -3.25900000      -3.31880000
O        1.14000000      -3.74520000      -4.30290000
H        1.03450000       1.76110000       0.97180000
H        0.58950000       1.89560000      -0.74680000
H       -0.68090000       1.77180000       0.49490000
H        0.14620000      -0.59480000       0.80250000
H        0.96310000      -2.50770000      -0.20090000
H       -0.46610000      -2.39760000      -1.22980000
H        3.17760000      -3.11280000      -1.38220000
H        3.09600000      -3.17300000      -3.16500000
H        3.07310000      -1.59940000      -2.32670000
H       -0.46900000      -3.21010000      -3.17300000
