23
Properties=species:S:1:pos:R:3 gdb_120855=T pbc="F F F"
C        0.05820000       1.34100000       0.39600000
O       -0.04690000      -0.06080000       0.40850000
C       -1.21360000      -0.52700000      -0.24170000
C       -1.20250000      -2.03200000      -0.21490000
C       -1.72580000      -2.78750000       0.98150000
C       -2.46180000      -2.86190000      -0.33630000
C       -3.84560000      -2.26800000      -0.50320000
C       -4.94080000      -3.24230000      -0.08050000
O       -6.19300000      -2.60480000      -0.28510000
H        0.98450000       1.60590000       0.91210000
H        0.09670000       1.74180000      -0.63020000
H       -0.78670000       1.82160000       0.91570000
H       -2.11070000      -0.12690000       0.25810000
H       -1.23630000      -0.15820000      -1.28270000
H       -0.32110000      -2.45000000      -0.69350000
H       -1.17740000      -3.65390000       1.33410000
H       -2.18190000      -2.19910000       1.77240000
H       -2.32540000      -3.78910000      -0.88950000
H       -3.95770000      -1.35520000       0.09090000
H       -4.02160000      -1.98580000      -1.54880000
H       -4.86260000      -4.16830000      -0.67420000
H       -4.79910000      -3.52080000       0.97590000
H       -6.88710000      -3.21060000      -0.01030000
