12
Properties=species:S:1:pos:R:3 gdb_8757=T pbc="F F F"
C       -0.02690000       1.48100000      -0.01280000
N       -0.00600000       0.01400000       0.00100000
C       -0.00620000      -0.65860000       1.23700000
O       -0.02290000      -0.08490000       2.29400000
C        0.01420000      -0.73870000      -1.16090000
O        0.03070000      -1.94520000      -1.21740000
C        0.01110000       0.06590000      -2.39690000
N        0.00980000       0.65020000      -3.39350000
H        0.86260000       1.87650000      -0.50770000
H       -0.91930000       1.85090000      -0.52230000
H       -0.04010000       1.80090000       1.02790000
H        0.01050000      -1.74800000       1.11080000
