13
Properties=species:S:1:pos:R:3 gdb_132786=T pbc="F F F"
N        0.00720000       1.38560000      -0.12540000
C        0.01120000       0.02420000      -0.06510000
C       -1.19930000      -0.69220000      -0.08970000
O       -2.38540000      -0.01880000      -0.12690000
C       -1.07420000      -2.06570000      -0.06590000
F       -2.20770000      -2.78020000      -0.08310000
N        0.06560000      -2.72200000      -0.02470000
C        1.15030000      -1.94610000      -0.00060000
N        1.18680000      -0.61690000      -0.01480000
H        0.87150000       1.84500000       0.11020000
H       -0.85130000       1.86670000       0.08440000
H       -3.09890000      -0.66790000      -0.12230000
H        2.10850000      -2.45630000       0.03690000
