16
Properties=species:S:1:pos:R:3 gdb_75269=T pbc="F F F"
C       -0.00330000       1.46300000       0.02880000
C       -0.01850000      -0.02410000      -0.04860000
N       -0.04370000      -0.71140000      -1.11800000
C       -0.02500000      -2.13360000      -0.75520000
C        0.05620000      -2.15170000       0.77090000
C        1.23080000      -1.51050000       1.44160000
C        2.43160000      -1.20360000       0.70840000
N        3.41850000      -0.96710000       0.15320000
N       -0.03760000      -0.75160000       1.21040000
H        0.90640000       1.80390000       0.53580000
H       -0.03910000       1.89060000      -0.97290000
H       -0.85350000       1.82010000       0.61850000
H       -0.94460000      -2.61920000      -1.09960000
H        0.81380000      -2.63370000      -1.25150000
H       -0.50770000      -2.88260000       1.34080000
H        1.40880000      -1.73150000       2.49000000
