23
Properties=species:S:1:pos:R:3 gdb_88526=T pbc="F F F"
C        0.02670000       1.51470000      -0.39160000
C        0.00480000       0.04820000      -0.01940000
C        1.25220000      -0.79810000      -0.08900000
C        0.60960000      -0.51400000       1.25200000
C        1.30210000       0.27870000       2.31170000
C        0.64150000       1.11240000       3.46120000
C        2.17050000       1.19170000       3.72140000
C        2.23390000      -0.32810000       3.41450000
C        2.35090000       1.43590000       2.19830000
H        0.98950000       1.97900000      -0.16730000
H       -0.15450000       1.63870000      -1.46530000
H       -0.74810000       2.07760000       0.14110000
H       -0.90830000      -0.45720000      -0.32570000
H        1.19620000      -1.80180000      -0.49640000
H        2.18330000      -0.28270000      -0.30600000
H        0.05000000      -1.34620000       1.67570000
H        0.14090000       2.03950000       3.16640000
H        0.04690000       0.55280000       4.18980000
H        2.67300000       1.72160000       4.53090000
H        1.75760000      -0.99780000       4.13720000
H        3.19560000      -0.72490000       3.07580000
H        3.32400000       1.17500000       1.77110000
H        1.99200000       2.39550000       1.81670000
