17
Properties=species:S:1:pos:R:3 gdb_90146=T pbc="F F F"
O       -0.04100000       1.46730000      -0.10000000
C        0.12100000       0.08530000       0.02230000
C        0.40570000      -0.52880000       1.45900000
C       -0.88760000      -1.33600000       1.29470000
O       -1.95500000      -0.37920000       1.08040000
C       -1.15950000      -0.77930000      -0.04180000
C       -1.75010000      -1.86080000      -0.92370000
C       -1.83020000      -3.03510000       0.05420000
C       -1.32200000      -2.75650000       1.26430000
H       -0.80380000       1.69540000       0.44670000
H        0.87750000      -0.21960000      -0.70510000
H        1.30880000      -1.14300000       1.47580000
H        0.42590000       0.18010000       2.29000000
H       -2.73240000      -1.59980000      -1.33320000
H       -1.09840000      -2.08710000      -1.77670000
H       -2.30700000      -3.97220000      -0.21540000
H       -1.27550000      -3.43970000       2.10300000
