15
Properties=species:S:1:pos:R:3 gdb_84331=T pbc="F F F"
N       -0.10560000       1.74400000      -0.05340000
H       -0.15990000       1.25550000      -0.94120000
H        1.64940000       1.74770000       1.58200000
H       -0.54460000       2.65080000      -0.18540000
C       -0.73010000       0.99360000       0.99780000
C       -1.99810000       0.37570000       0.93650000
C       -2.51810000      -0.34670000       1.97460000
C       -1.79240000      -0.51000000       3.19770000
O       -2.07910000      -1.10260000       4.20090000
O       -0.50900000       0.14950000       3.20660000
C       -0.02890000       0.84140000       2.17630000
N        1.18050000       1.41130000       2.41010000
H       -2.57280000       0.47910000       0.01880000
H       -3.48620000      -0.82580000       1.92300000
H        1.73850000       1.01960000       3.15150000
