15
Properties=species:S:1:pos:R:3 gdb_48665=T pbc="F F F"
O       -0.15680000       0.01360000       0.19240000
C       -0.02410000       1.17780000      -0.09460000
C        1.27100000       1.88860000      -0.10450000
C        1.28660000       3.38420000       0.23330000
C        1.62430000       2.93560000      -1.15600000
C        3.10200000       2.71650000      -1.46030000
O        3.73700000       3.29490000      -2.30780000
C        3.57330000       1.64960000      -0.53420000
C        2.54960000       1.17190000       0.18600000
H       -0.89660000       1.81340000      -0.36960000
H        0.32640000       3.87250000       0.37260000
H        2.07700000       3.72010000       0.89480000
H        0.95670000       3.18830000      -1.97010000
H        4.60840000       1.33890000      -0.48750000
H        2.58940000       0.37500000       0.91800000
