17
Properties=species:S:1:pos:R:3 gdb_36304=T pbc="F F F"
C        0.00650000      -1.13020000      -0.30450000
C       -0.02180000       0.04740000      -0.06630000
C       -0.03190000       1.47580000       0.23200000
C        1.35360000       2.09330000       0.13680000
C        1.85750000       2.74690000      -1.13600000
O        0.87630000       3.08300000      -2.09320000
C        0.37510000       4.34400000      -1.68600000
O        0.42890000       4.36630000      -0.26960000
C        1.56160000       3.59290000       0.06680000
H        0.01740000      -2.16930000      -0.52120000
H       -0.70670000       1.99150000      -0.45680000
H       -0.43400000       1.63770000       1.24000000
H        2.12210000       1.56510000       0.69590000
H        2.84540000       2.55040000      -1.53750000
H        0.99140000       5.15690000      -2.10610000
H       -0.66500000       4.43930000      -2.00870000
H        2.30280000       4.10240000       0.67310000
