19
Properties=species:S:1:pos:R:3 gdb_100928=T pbc="F F F"
O       -0.06800000       1.34580000      -0.18380000
C        0.02670000      -0.04670000       0.12060000
C       -1.38660000      -0.60190000      -0.05180000
O       -1.88220000      -0.27590000      -1.34160000
C       -1.46450000      -2.12820000       0.10980000
C       -2.90900000      -2.60740000       0.20550000
O       -2.86200000      -4.01230000       0.41170000
C       -0.75680000      -2.81920000      -1.05470000
O        0.44050000      -2.91370000      -1.14960000
H        0.80540000       1.66510000      -0.42490000
H        0.71600000      -0.55990000      -0.55810000
H        0.36990000      -0.20510000       1.15340000
H       -2.02120000      -0.13770000       0.72310000
H       -1.59150000       0.63220000      -1.50090000
H       -0.93330000      -2.41050000       1.02650000
H       -3.41980000      -2.09350000       1.03380000
H       -3.43890000      -2.35030000      -0.72310000
H       -3.75200000      -4.36490000       0.32200000
H       -1.42850000      -3.23080000      -1.83700000
