16
Properties=species:S:1:pos:R:3 gdb_12864=T pbc="F F F"
O        0.14430000       1.38390000      -0.14660000
C        0.06360000      -0.00620000      -0.02120000
C        0.24940000      -0.78530000      -1.32910000
O       -0.88180000      -1.62820000      -1.01050000
C       -1.30790000      -0.73280000       0.04680000
C       -1.38060000      -1.36520000       1.44020000
O       -0.27200000      -0.82410000       2.16380000
C        0.76510000      -0.59690000       1.21870000
H       -0.01190000       1.77600000       0.71990000
H        0.06250000      -0.16430000      -2.21330000
H        1.17300000      -1.35850000      -1.46250000
H       -2.18850000      -0.15110000      -0.24430000
H       -2.28790000      -1.11260000       1.99500000
H       -1.30350000      -2.45850000       1.34800000
H        1.27810000      -1.53810000       0.96630000
H        1.48980000       0.09340000       1.65880000
