16
Properties=species:S:1:pos:R:3 gdb_3058=T pbc="F F F"
C        0.07260000       0.90030000      -0.85470000
C       -0.00410000      -0.39110000      -0.18560000
C       -0.05580000      -1.45170000       0.38470000
C       -0.13550000      -2.75410000       1.05540000
N       -0.91280000      -3.81050000       0.39240000
C       -2.11600000      -3.43340000      -0.34040000
C       -0.89230000      -3.87970000      -1.06430000
H        1.05520000       1.05610000      -1.31350000
H       -0.67930000       0.98110000      -1.64730000
H       -0.10040000       1.72220000      -0.15140000
H        0.87760000      -3.14820000       1.20400000
H       -0.56520000      -2.62140000       2.05620000
H       -2.96360000      -4.10150000      -0.21600000
H       -2.36250000      -2.37640000      -0.41130000
H       -0.34320000      -3.11280000      -1.60590000
H       -0.82620000      -4.88100000      -1.48030000
