14
Properties=species:S:1:pos:R:3 gdb_14605=T pbc="F F F"
O       -0.16640000      -0.07480000      -0.10690000
C       -0.02060000       1.11820000      -0.09410000
C        1.31760000       1.82510000      -0.15500000
C        1.33290000       2.92310000      -1.24320000
C        2.55870000       3.70470000      -1.25060000
C        3.57900000       4.35090000      -1.25400000
C        4.80600000       5.10660000      -1.23470000
O        5.07180000       5.99990000      -2.00530000
H       -0.89850000       1.80420000      -0.02650000
H        1.48960000       2.29560000       0.82230000
H        2.10550000       1.08710000      -0.32040000
H        1.19370000       2.46870000      -2.23250000
H        0.48020000       3.60090000      -1.10060000
H        5.51330000       4.80150000      -0.43680000
