20
Properties=species:S:1:pos:R:3 gdb_98539=T pbc="F F F"
C       -0.55610000       1.68400000       0.51250000
C       -0.76140000       0.19240000       0.76290000
C       -0.91200000      -0.61110000      -0.51810000
O       -0.77400000      -0.11890000      -1.61980000
C       -1.24990000      -2.05560000      -0.39370000
C       -1.36820000      -3.03640000      -1.56930000
C       -2.58510000      -3.71520000      -0.85970000
C       -2.43690000      -2.72070000       0.29900000
N       -1.11610000      -2.75040000       0.88780000
H       -0.42840000       2.21950000       1.45750000
H        0.32680000       1.85720000      -0.10770000
H       -1.41060000       2.11570000      -0.01600000
H        0.07550000      -0.24310000       1.32350000
H       -1.63650000       0.00450000       1.39790000
H       -1.64440000      -2.52980000      -2.49410000
H       -0.48390000      -3.65440000      -1.75320000
H       -3.51540000      -3.59000000      -1.41760000
H       -2.48300000      -4.76930000      -0.58160000
H       -3.23590000      -2.25940000       0.86920000
H       -0.65340000      -3.65250000       0.78550000
