20
Properties=species:S:1:pos:R:3 gdb_8454=T pbc="F F F"
C       -0.01390000       1.52640000       0.02110000
C        0.01910000       0.01560000       0.03490000
C        0.96290000      -0.81470000      -0.89420000
C        0.69100000      -1.93440000       0.14820000
C        0.64960000      -0.79920000       1.20860000
C       -0.80070000      -2.21300000      -0.07780000
O       -1.31820000      -2.94660000       1.02130000
C       -1.31460000      -0.73720000      -0.17110000
H        0.98670000       1.94880000       0.16330000
H       -0.40480000       1.90670000      -0.93010000
H       -0.65630000       1.91480000       0.82020000
H        0.65260000      -0.97990000      -1.93190000
H        1.99670000      -0.46100000      -0.86490000
H        1.33670000      -2.80590000       0.25140000
H        1.64720000      -0.43760000       1.47080000
H        0.05180000      -0.96540000       2.10750000
H       -0.96750000      -2.76440000      -1.01450000
H       -2.26670000      -3.04480000       0.89370000
H       -2.03900000      -0.52760000       0.62310000
H       -1.77900000      -0.50370000      -1.13510000
