16
Properties=species:S:1:pos:R:3 gdb_67757=T pbc="F F F"
C       -0.03310000       1.55310000       0.04050000
C       -0.03890000       0.04120000       0.07260000
C       -1.35500000      -0.69680000      -0.11400000
C       -1.24140000      -1.94310000       0.35120000
C        0.11780000      -2.11640000       0.95040000
C        0.70460000      -0.79100000       1.16230000
N        1.34310000      -1.72470000       0.10980000
C        0.94370000      -0.72530000      -0.85500000
O        1.42280000      -0.49170000      -1.92130000
H        0.97760000       1.94830000       0.17710000
H       -0.39850000       1.91060000      -0.92670000
H       -0.67580000       1.96880000       0.82290000
H       -2.17750000      -0.28080000      -0.68200000
H       -1.96730000      -2.74150000       0.28140000
H        0.36290000      -2.96200000       1.58170000
H        1.29500000      -0.42760000       1.99430000
