19
Properties=species:S:1:pos:R:3 gdb_39332=T pbc="F F F"
C       -0.01230000       1.43310000      -0.16670000
C        1.35810000       0.76990000      -0.03200000
C        1.97750000       0.69210000       1.36500000
C        1.31640000      -0.54090000       2.04260000
C       -0.05020000      -0.73570000       1.34850000
O       -0.35320000      -2.08490000       0.97940000
C       -0.09010000      -2.19610000      -0.40460000
O       -0.36330000      -0.93390000      -0.97930000
C        0.07920000      -0.03570000      -0.00770000
H       -0.39730000       2.03630000       0.65180000
H       -0.27240000       1.79600000      -1.15570000
H        1.99710000       0.78120000      -0.90710000
H        3.06390000       0.58100000       1.31650000
H        1.78190000       1.60760000       1.93560000
H        1.91290000      -1.43710000       1.84280000
H        1.23200000      -0.44210000       3.12820000
H       -0.88580000      -0.37440000       1.95670000
H        0.96510000      -2.47230000      -0.58060000
H       -0.75740000      -2.94260000      -0.84250000
