21
Properties=species:S:1:pos:R:3 gdb_84987=T pbc="F F F"
C        0.76310000       1.38480000       0.13330000
C       -0.07130000       0.11700000      -0.04890000
C        0.32470000      -0.70650000      -1.28070000
C        1.23300000      -1.78810000      -0.70650000
O        2.00050000      -2.49150000      -1.30970000
C        0.99000000      -1.83500000       0.81010000
C        0.32470000      -3.16330000       1.19030000
C        2.30830000      -1.63790000       1.57050000
O        0.07330000      -0.77190000       1.07570000
H        1.83620000       1.17200000       0.08080000
H        0.52560000       2.11480000      -0.64810000
H        0.55030000       1.83630000       1.10580000
H       -1.13070000       0.39240000      -0.07440000
H       -0.54330000      -1.20520000      -1.72810000
H        0.82780000      -0.14340000      -2.06900000
H        0.98430000      -4.00040000       0.94650000
H        0.11120000      -3.17680000       2.26290000
H       -0.61950000      -3.29140000       0.65330000
H        2.76850000      -0.67680000       1.32650000
H        2.12240000      -1.66400000       2.64790000
H        3.01240000      -2.43250000       1.30880000
