17
Properties=species:S:1:pos:R:3 gdb_32943=T pbc="F F F"
C        0.55790000       1.59100000       0.92400000
N       -0.31200000       0.57220000       0.32880000
H        0.00670000      -0.35620000       0.59160000
H       -1.25280000       0.66270000       0.69990000
C        0.06810000      -1.08490000      -2.52360000
C        0.43430000      -2.23920000      -1.96720000
C        0.79110000      -3.51350000      -2.57480000
N        1.09130000      -4.40920000      -1.70130000
C        0.95100000      -3.77620000      -0.43190000
O        1.12960000      -4.23860000       0.64810000
O        0.54790000      -2.44650000      -0.61600000
H        1.57290000       1.47160000       0.53260000
H        0.20830000       2.58550000       0.62890000
H        0.61790000       1.56760000       2.02310000
H        0.00690000      -1.01830000      -3.60310000
H       -0.16610000      -0.22050000      -1.90690000
H        0.80670000      -3.70260000      -3.64300000
