21
Properties=species:S:1:pos:R:3 gdb_110588=T pbc="F F F"
C        0.02790000       1.35240000      -0.27670000
O       -0.06350000       0.10710000       0.37740000
C       -1.30980000      -0.51900000       0.21630000
C       -1.56860000      -1.35720000      -1.05150000
C       -0.65580000      -2.52610000      -0.54380000
C       -1.76150000      -3.57580000      -0.76780000
C       -2.51240000      -2.32820000      -0.26210000
C       -1.36270000      -1.95540000       0.74930000
C       -1.18860000      -2.42420000       2.16660000
H        1.01530000       1.76610000      -0.05700000
H       -0.08030000       1.25590000      -1.36750000
H       -0.73910000       2.05670000       0.08270000
H       -2.12680000       0.15430000       0.52700000
H       -1.69970000      -1.04680000      -2.08890000
H        0.41940000      -2.61240000      -0.69630000
H       -1.95230000      -3.87680000      -1.80300000
H       -1.75800000      -4.45270000      -0.11210000
H       -3.58140000      -2.18460000      -0.09340000
H       -1.25150000      -3.51550000       2.23730000
H       -0.21340000      -2.11490000       2.55650000
H       -1.96000000      -2.00070000       2.81990000
