18
Properties=species:S:1:pos:R:3 gdb_29694=T pbc="F F F"
C        0.07450000       1.46660000      -0.00700000
N        0.04760000       0.01820000      -0.00110000
C       -0.01940000      -0.83880000      -1.08660000
C       -0.07650000      -0.34770000      -2.49260000
N       -0.02480000      -2.09550000      -0.70630000
C        0.04050000      -2.07920000       0.67370000
N        0.06080000      -3.19780000       1.54570000
C        0.08510000      -0.78630000       1.11050000
O        0.15330000      -0.25560000       2.35130000
H        0.94810000       1.84240000      -0.54930000
H       -0.82840000       1.87550000      -0.47170000
H        0.12610000       1.81540000       1.02490000
H        0.80570000       0.24630000      -2.76350000
H       -0.12320000      -1.21300000      -3.15520000
H       -0.95820000       0.27810000      -2.68080000
H        0.85330000      -3.80150000       1.34240000
H       -0.76910000      -3.77140000       1.41890000
H        0.16730000      -1.01650000       2.94880000
