15
Properties=species:S:1:pos:R:3 gdb_53895=T pbc="F F F"
C       -0.05960000       1.18570000       0.51810000
C        0.27150000      -0.22990000       0.12630000
O        0.74320000      -1.04200000       0.88430000
C       -0.03300000      -0.61440000      -1.35130000
C        1.23300000      -0.78580000      -2.05660000
N        2.24310000      -0.90770000      -2.60540000
C       -0.92440000      -1.89600000      -1.46410000
N       -0.41200000      -2.98200000      -0.84260000
O       -1.95850000      -1.85840000      -2.09030000
H        0.47140000       1.88730000      -0.13530000
H       -1.13120000       1.36780000       0.37510000
H        0.21370000       1.36150000       1.55860000
H       -0.60560000       0.17540000      -1.84150000
H        0.32870000      -2.86450000      -0.16600000
H       -0.98210000      -3.81240000      -0.81190000
