18
Properties=species:S:1:pos:R:3 gdb_78019=T pbc="F F F"
C       -0.27480000       1.48450000       0.03020000
N        0.14390000       0.09310000       0.02530000
C        1.23800000      -0.35500000      -0.87430000
C        1.91730000      -1.07980000       0.28860000
C        2.40450000      -2.46380000       0.25900000
O        2.40710000      -3.16420000      -0.72580000
C        2.22300000      -0.10950000       1.39550000
O        2.78100000       1.12160000       1.04740000
C        0.78440000      -0.46880000       1.19760000
H        0.55410000       2.20020000       0.14240000
H       -0.79620000       1.70690000      -0.90680000
H       -0.98590000       1.64080000       0.84850000
H        0.88630000      -1.03470000      -1.65400000
H        1.83580000       0.44990000      -1.31540000
H        2.78060000      -2.84250000       1.23760000
H        2.67340000      -0.59220000       2.26710000
H        2.50490000       1.77110000       1.70280000
H        0.19720000      -0.95730000       1.97130000
