21
Properties=species:S:1:pos:R:3 gdb_110149=T pbc="F F F"
O        0.26420000       1.09810000      -0.41630000
C        0.02180000      -0.08310000       0.34260000
C       -1.37310000      -0.63850000       0.14080000
C       -1.84000000      -1.17780000      -1.19660000
C       -0.94310000      -1.20770000      -2.41730000
O       -1.04650000      -2.42330000      -3.15310000
C       -1.64070000      -2.12110000      -0.02690000
C       -0.52890000      -3.14980000       0.00600000
O        0.11740000      -3.22900000       1.27330000
H       -0.41190000       1.74180000      -0.18180000
H        0.78850000      -0.79320000       0.02980000
H        0.18520000       0.09580000       1.41590000
H       -2.13250000      -0.09590000       0.70190000
H       -2.88070000      -0.96720000      -1.43830000
H       -1.17330000      -0.33960000      -3.05290000
H        0.11030000      -1.11940000      -2.14750000
H       -1.97140000      -2.54590000      -3.38950000
H       -2.55920000      -2.47240000       0.44070000
H       -0.93590000      -4.12750000      -0.29220000
H        0.26070000      -2.91560000      -0.70950000
H       -0.55650000      -3.41170000       1.93580000
