22
Properties=species:S:1:pos:R:3 gdb_31223=T pbc="F F F"
C       -0.02530000       1.70150000       0.48910000
C        0.01440000       0.23290000       0.02660000
C       -1.33550000      -0.40600000      -0.08570000
C       -2.10070000      -0.75500000      -1.18450000
C       -1.72470000      -0.62220000      -2.63400000
C       -1.35850000      -1.96220000      -3.29590000
C       -3.32350000      -1.30350000      -0.68680000
C       -3.27340000      -1.27220000       0.68410000
N       -2.06610000      -0.72620000       1.03920000
H        0.98440000       2.11900000       0.56000000
H       -0.60240000       2.31290000      -0.21090000
H       -0.49610000       1.79680000       1.47340000
H        0.50930000       0.17410000      -0.94760000
H        0.64600000      -0.34430000       0.71660000
H       -2.55750000      -0.16970000      -3.18770000
H       -0.88420000       0.07310000      -2.74080000
H       -1.11210000      -1.82740000      -4.35460000
H       -0.49660000      -2.41970000      -2.79950000
H       -2.18990000      -2.67130000      -3.22930000
H       -4.14530000      -1.67480000      -1.28140000
H       -3.98440000      -1.58680000       1.43130000
H       -1.75290000      -0.58330000       1.98340000
