18
Properties=species:S:1:pos:R:3 gdb_6179=T pbc="F F F"
C       -0.04340000       1.54880000       0.01840000
C       -0.01490000       0.00810000      -0.01890000
C       -1.45610000      -0.53800000       0.01030000
C        0.79270000      -0.53400000      -1.22720000
C        1.96840000      -1.33240000      -0.63880000
O        2.82300000      -1.90870000      -1.27010000
C        1.84190000      -1.25230000       0.83570000
C        0.76910000      -0.52720000       1.16600000
H        0.96890000       1.96390000      -0.00970000
H       -0.59810000       1.94390000      -0.83920000
H       -0.53190000       1.91230000       0.92920000
H       -2.02590000      -0.16520000      -0.84730000
H       -1.46530000      -1.63190000      -0.02350000
H       -1.97830000      -0.22430000       0.92100000
H        0.20090000      -1.19100000      -1.87180000
H        1.18540000       0.26300000      -1.86600000
H        2.54400000      -1.73030000       1.50710000
H        0.44620000      -0.31250000       2.18120000
