18
Properties=species:S:1:pos:R:3 gdb_34991=T pbc="F F F"
N       -0.34830000      -1.18080000      -0.18320000
C       -0.14280000      -0.04470000      -0.09650000
C        0.02600000       1.37700000       0.00570000
C        0.48020000       2.08540000       1.27670000
C        1.26270000       1.32360000       2.35510000
C        2.67040000       1.07040000       1.79370000
C        2.85520000       0.07730000       0.67770000
C        2.69110000       1.54360000       0.35080000
C        1.34160000       2.15780000       0.04110000
H       -0.76460000       1.89850000      -0.52810000
H       -0.14220000       2.91550000       1.59260000
H        1.32840000       1.95380000       3.24680000
H        0.75920000       0.39860000       2.65760000
H        3.51070000       1.25650000       2.45350000
H        3.85400000      -0.32690000       0.54780000
H        2.06950000      -0.62810000       0.44660000
H        3.54580000       2.07030000      -0.05750000
H        1.34810000       3.04130000      -0.58710000
