15
Properties=species:S:1:pos:R:3 gdb_4355=T pbc="F F F"
C        0.00710000       1.49270000       0.02150000
C        0.03600000      -0.01390000       0.02230000
N        0.08120000      -0.60780000      -1.17900000
C        0.10760000      -1.94260000      -1.20260000
C        0.09160000      -2.75420000      -0.07640000
C        0.04460000      -2.13000000       1.16860000
O        0.02840000      -2.90720000       2.27850000
C        0.01640000      -0.73600000       1.21560000
H        0.89380000       1.88750000      -0.48440000
H       -0.86340000       1.85370000      -0.53520000
H       -0.03000000       1.90220000       1.03400000
H        0.14410000      -2.39940000      -2.18930000
H        0.11440000      -3.83450000      -0.14850000
H       -0.00440000      -2.34430000       3.06000000
H       -0.02040000      -0.21800000       2.17020000
