23
Properties=species:S:1:pos:R:3 gdb_115579=T pbc="F F F"
C       -0.48360000       1.62900000       0.10240000
C       -0.08530000       0.15480000       0.07270000
C       -1.26460000      -0.70140000      -0.38860000
O       -1.62680000      -0.30680000      -1.70510000
C        1.21340000      -0.21080000      -0.71210000
C        1.64380000      -1.13910000       0.45520000
C        0.55270000      -0.49190000       1.35490000
C        1.10930000       0.47120000       2.38940000
O        1.77180000      -0.30960000       3.37670000
H        0.35160000       2.27120000       0.39650000
H       -0.81810000       1.94110000      -0.89070000
H       -1.31010000       1.80800000       0.80100000
H       -0.98350000      -1.76600000      -0.36270000
H       -2.10510000      -0.56630000       0.31300000
H       -2.35870000      -0.85810000      -1.99520000
H        1.06270000      -0.66400000      -1.69420000
H        1.87750000       0.64990000      -0.83180000
H        1.45900000      -2.19700000       0.25400000
H        2.66850000      -1.03940000       0.81980000
H       -0.10050000      -1.19870000       1.87960000
H        1.80950000       1.17850000       1.91630000
H        0.29490000       1.06490000       2.83410000
H        2.17130000       0.28940000       4.01390000
