20
Properties=species:S:1:pos:R:3 gdb_73392=T pbc="F F F"
C        0.02250000       1.55620000      -0.05600000
C        0.02960000       0.04630000      -0.00010000
C        0.42270000      -0.70820000      -1.26800000
C        0.27920000      -2.15540000      -0.71420000
N       -0.14530000      -1.94920000       0.68690000
C        0.73120000      -0.77740000       1.15880000
C        0.00540000      -0.34720000       2.42050000
C       -1.27290000      -0.36760000       2.03630000
C       -1.17020000      -0.80750000       0.58730000
H        1.01550000       1.94190000      -0.31390000
H       -0.67490000       1.91510000      -0.82160000
H       -0.27270000       1.98800000       0.90430000
H       -0.25210000      -0.49460000      -2.10370000
H        1.43990000      -0.46780000      -1.59510000
H       -0.47650000      -2.74550000      -1.24100000
H        1.21680000      -2.71870000      -0.73210000
H        1.81060000      -0.94310000       1.18010000
H        0.45200000      -0.11280000       3.37530000
H       -2.17850000      -0.15470000       2.58470000
H       -2.07720000      -1.00470000       0.01150000
