19
Properties=species:S:1:pos:R:3 gdb_80366=T pbc="F F F"
C       -0.12610000       1.54430000       0.12040000
C        0.05120000       0.05560000      -0.07240000
C        0.61080000      -0.65350000      -1.24200000
N        1.31730000      -0.69080000       0.11000000
C        2.41970000       0.13630000      -0.48700000
C        1.80830000       0.03540000      -1.92220000
C        2.58860000      -0.92900000      -2.82830000
C        1.54500000       1.28340000      -2.63770000
N        1.35220000       2.27270000      -3.20500000
H        0.58200000       2.15690000      -0.43780000
H       -1.12880000       1.83360000      -0.20930000
H       -0.03940000       1.79540000       1.18310000
H       -0.74680000      -0.51710000       0.39880000
H        0.14280000      -1.53620000      -1.66940000
H        2.52470000       1.13670000      -0.06180000
H        3.37220000      -0.39000000      -0.40500000
H        2.77340000      -1.86570000      -2.29520000
H        2.02350000      -1.15210000      -3.73790000
H        3.54900000      -0.49480000      -3.11970000
