20
Properties=species:S:1:pos:R:3 gdb_16558=T pbc="F F F"
C       -0.01690000       1.55280000       0.00330000
C        1.47370000       2.00950000      -0.06470000
C        2.27340000       0.69520000       0.13120000
C        1.38490000      -0.31890000      -0.61280000
C        0.01610000      -0.00310000       0.02180000
C       -0.00880000      -0.56150000       1.45970000
C        1.26980000      -0.25050000       2.19920000
C        2.31420000       0.32270000       1.60020000
H       -0.52610000       1.94950000       0.88650000
H       -0.56960000       1.91500000      -0.86870000
H        1.70270000       2.44440000      -1.04410000
H        1.71720000       2.76110000       0.69060000
H        3.28570000       0.76510000      -0.27620000
H        1.37660000      -0.11160000      -1.68910000
H        1.70150000      -1.35580000      -0.46530000
H       -0.81920000      -0.42590000      -0.54390000
H       -0.86680000      -0.14510000       2.00610000
H       -0.17310000      -1.64960000       1.44410000
H        1.31430000      -0.51350000       3.25370000
H        3.21300000       0.55960000       2.16410000
