16
Properties=species:S:1:pos:R:3 gdb_22376=T pbc="F F F"
O       -0.15980000       1.33240000       0.42290000
N       -0.01220000      -0.06170000       0.39760000
C       -1.05940000      -0.62380000      -0.03740000
C       -2.45130000      -0.17760000      -0.45890000
C       -2.82680000      -1.68770000      -0.61730000
O       -3.92490000      -2.17200000       0.08410000
C       -2.47830000      -2.29500000      -1.99190000
O       -1.10810000      -2.52670000      -1.58590000
C       -1.36480000      -2.09120000      -0.22860000
H        0.68870000       1.62230000       0.77590000
H       -2.99490000       0.30800000       0.35830000
H       -2.51700000       0.44930000      -1.35280000
H       -4.69580000      -1.64010000      -0.14140000
H       -3.00490000      -3.23820000      -2.18310000
H       -2.54950000      -1.64200000      -2.86990000
H       -1.06810000      -2.82230000       0.52500000
