16
Properties=species:S:1:pos:R:3 gdb_3162=T pbc="F F F"
O        0.43650000       0.92040000      -0.69230000
C        0.07740000      -0.23350000       0.02330000
C        0.03020000      -0.22730000       1.58060000
C       -1.25070000      -1.11250000       1.51400000
C       -1.38540000      -0.70280000       0.04450000
C       -2.50090000       0.00820000      -0.61930000
N       -2.15030000      -1.38040000      -0.98820000
H       -0.10290000       1.64790000      -0.36350000
H        0.73860000      -1.02570000      -0.34620000
H        0.89940000      -0.61990000       2.11080000
H       -0.19030000       0.77660000       1.95780000
H       -1.03010000      -2.17830000       1.62000000
H       -2.07330000      -0.85480000       2.18400000
H       -3.45720000       0.12040000      -0.11480000
H       -2.25170000       0.80480000      -1.31690000
H       -1.62850000      -1.38190000      -1.86280000
