19
Properties=species:S:1:pos:R:3 gdb_76526=T pbc="F F F"
C       -0.11340000       0.70950000      -2.11750000
C        0.07120000      -0.41450000      -1.12090000
C        1.35070000      -0.62060000      -0.33580000
C        2.55980000       0.27860000      -0.47730000
C        0.11410000      -0.09570000       0.35510000
O        0.01490000       1.24110000       0.86790000
C       -0.75850000       0.80920000       2.01480000
C       -0.67590000      -0.64030000       1.49950000
O       -1.06550000      -1.71410000       1.85230000
H        0.30250000       1.64980000      -1.75100000
H        0.36610000       0.46820000      -3.07200000
H       -1.17790000       0.87630000      -2.30970000
H       -0.47080000      -1.32740000      -1.35670000
H        1.57820000      -1.65760000      -0.09940000
H        2.27800000       1.33140000      -0.53930000
H        3.21960000       0.16790000       0.38900000
H        3.13540000       0.02160000      -1.37260000
H       -0.24700000       1.00180000       2.96460000
H       -1.76330000       1.24610000       2.03410000
