14
Properties=species:S:1:pos:R:3 gdb_2188=T pbc="F F F"
C        0.00580000       1.55480000       0.00330000
C       -0.00600000       0.03600000       0.04020000
N        1.02640000      -0.62890000      -0.78220000
C        1.75850000      -1.11720000       0.26530000
O        2.83220000      -1.65350000       0.36240000
C        0.68860000      -0.63420000       1.27650000
O        1.14820000       0.23820000       2.27450000
H        0.99450000       1.94280000       0.25730000
H       -0.27520000       1.92000000      -0.99000000
H       -0.71160000       1.95410000       0.72650000
H       -1.00990000      -0.35370000      -0.16010000
H        1.24310000      -0.56220000      -1.76690000
H        0.09610000      -1.45640000       1.69930000
H        2.04590000      -0.03380000       2.49850000
