20
Properties=species:S:1:pos:R:3 gdb_83119=T pbc="F F F"
C        0.12450000       1.54320000      -0.04070000
C        0.09920000       0.03230000       0.04500000
C        1.33830000      -0.80590000      -0.15540000
O        2.58170000      -0.17760000      -0.37730000
C        3.19100000       0.40190000       0.68780000
N        2.79180000       0.53530000       1.87690000
C        1.49840000      -0.00920000       2.27380000
C        0.70170000      -0.75410000       1.20550000
C       -0.04450000      -1.97640000       1.70090000
H        1.02020000       1.97370000       0.41180000
H        0.08990000       1.87140000      -1.08490000
H       -0.74380000       1.97200000       0.47070000
H       -0.80010000      -0.41390000      -0.37460000
H        1.28180000      -1.71300000      -0.74780000
H        4.15720000       0.79500000       0.37750000
H        1.68770000      -0.69810000       3.10620000
H        0.90850000       0.81250000       2.70270000
H       -0.79290000      -1.70090000       2.45370000
H       -0.57050000      -2.48240000       0.88490000
H        0.63910000      -2.70020000       2.15950000
