17
Properties=species:S:1:pos:R:3 gdb_10488=T pbc="F F F"
C        0.43370000      -0.73620000       1.56320000
O        0.02410000      -0.35340000       0.26190000
C       -1.25890000      -0.76120000      -0.09820000
C       -2.39400000      -0.03210000       0.61730000
C       -2.35940000       1.41550000       0.40230000
N       -2.33920000       2.55820000       0.23490000
C       -1.41400000      -1.11620000      -1.54260000
C       -1.45970000      -2.20600000      -0.48750000
H        1.48520000      -0.45650000       1.65400000
H       -0.13120000      -0.21510000       2.34860000
H        0.33410000      -1.81950000       1.71670000
H       -3.35650000      -0.41640000       0.26490000
H       -2.35930000      -0.22480000       1.69590000
H       -2.33220000      -0.84070000      -2.04930000
H       -0.51850000      -1.04680000      -2.14820000
H       -0.59520000      -2.85520000      -0.40980000
H       -2.40830000      -2.68620000      -0.27210000
