12
Properties=species:S:1:pos:R:3 gdb_23671=T pbc="F F F"
O        0.09220000       1.33840000       0.09740000
C        0.07050000      -0.00750000       0.05830000
N        0.08050000      -0.58350000      -1.14010000
C        0.05890000      -1.92090000      -1.17880000
C        0.02720000      -2.73070000      -0.05360000
C        0.01790000      -2.08420000       1.18010000
F       -0.01230000      -2.80680000       2.29650000
C        0.03920000      -0.70660000       1.26910000
H        0.11200000       1.62910000      -0.82530000
H        0.06760000      -2.36740000      -2.16940000
H        0.01040000      -3.81030000      -0.11800000
H        0.03230000      -0.19290000       2.22070000
