16
Properties=species:S:1:pos:R:3 gdb_32347=T pbc="F F F"
C       -0.28380000       1.43740000       0.19860000
N        0.21440000       0.10470000      -0.13340000
C        0.80570000      -0.65840000       0.87330000
C        0.60030000      -1.98270000       1.03780000
O        1.31470000      -2.72360000       1.94210000
C        2.22860000      -2.10700000       2.76150000
N        2.92060000      -2.73510000       3.62360000
C        2.34640000      -0.66020000       2.57260000
N        1.69940000       0.02040000       1.69750000
H        0.51390000       2.00240000       0.68150000
H       -0.56200000       1.94810000      -0.72660000
H       -1.15560000       1.42630000       0.87130000
H       -0.44280000      -0.43280000      -0.68210000
H       -0.09760000      -2.59100000       0.47840000
H        2.70200000      -3.73230000       3.61120000
H        3.04370000      -0.15330000       3.23520000
