16
Properties=species:S:1:pos:R:3 gdb_49762=T pbc="F F F"
O       -0.04990000      -0.04000000      -0.13680000
C        0.01910000       1.16900000      -0.10480000
N        1.18140000       1.88080000       0.01280000
C        2.45550000       1.31200000       0.17430000
C        3.40320000       2.22750000       0.39980000
C        2.79520000       3.60380000       0.38790000
O        2.95840000       4.34430000      -0.85150000
C        1.59900000       4.07080000      -1.25230000
C        1.29660000       3.33430000       0.07090000
H       -0.86290000       1.83480000      -0.17020000
H        2.52620000       0.23570000       0.11700000
H        4.44980000       2.01940000       0.56550000
H        3.06430000       4.22960000       1.24510000
H        1.03070000       4.99380000      -1.41730000
H        1.53990000       3.43950000      -2.14680000
H        0.52900000       3.77540000       0.70680000
