16
Properties=species:S:1:pos:R:3 gdb_105722=T pbc="F F F"
C       -0.04770000       1.35980000      -0.17290000
O       -0.11130000      -0.06340000      -0.08570000
C       -1.38870000      -0.59570000       0.08870000
O       -2.26960000      -0.26900000      -0.97040000
C       -2.61030000      -1.44290000      -1.71340000
C       -1.97000000      -2.57300000      -0.96560000
C       -1.29170000      -2.10460000       0.07230000
C       -1.99370000      -0.08070000       1.35610000
N       -2.44420000       0.28850000       2.35380000
H        1.00550000       1.60590000      -0.31410000
H       -0.63080000       1.72650000      -1.02340000
H       -0.41110000       1.83160000       0.74840000
H       -3.70400000      -1.52640000      -1.75830000
H       -2.23780000      -1.35840000      -2.74390000
H       -2.05950000      -3.60820000      -1.26820000
H       -0.71100000      -2.64480000       0.80540000
