18
Properties=species:S:1:pos:R:3 gdb_45158=T pbc="F F F"
N       -0.07030000       1.23500000       0.39440000
C       -0.01560000       0.02510000       0.01970000
O        1.16710000      -0.60560000      -0.25980000
C        1.04510000      -1.98190000      -0.67260000
C        0.12100000      -2.05630000      -1.90070000
C       -1.24100000      -1.85130000      -1.25720000
C       -1.13610000      -2.29240000       0.18240000
C        0.28970000      -2.76590000       0.41480000
C       -1.22990000      -0.80940000      -0.14760000
H        0.87270000       1.62640000       0.44570000
H        2.06510000      -2.32100000      -0.85080000
H        0.38430000      -1.29760000      -2.64320000
H        0.18830000      -3.04280000      -2.37280000
H       -2.14890000      -1.97630000      -1.83420000
H       -1.96380000      -2.75470000       0.70570000
H        0.37890000      -3.84430000       0.24280000
H        0.67970000      -2.54010000       1.41140000
H       -2.15230000      -0.29170000       0.07830000
