20
Properties=species:S:1:pos:R:3 gdb_40182=T pbc="F F F"
C       -0.00750000       1.52810000      -0.08680000
C        1.30880000       0.77460000      -0.04600000
C        0.02520000       0.01830000       0.02420000
C       -0.37450000      -0.71740000       1.28700000
N       -1.73930000      -1.25530000       1.27950000
C       -2.85030000      -0.35220000       1.00100000
C       -2.41300000      -1.34580000      -0.02280000
C       -1.69990000      -0.85910000      -1.28700000
O       -0.29310000      -0.72400000      -1.12270000
H       -0.29560000       2.11340000       0.78010000
H       -0.30360000       1.95030000      -1.04080000
H        1.86380000       0.69570000      -0.97370000
H        1.91920000       0.83810000       0.84890000
H        0.29850000      -1.57550000       1.40670000
H       -0.25660000      -0.07820000       2.16850000
H       -3.74440000      -0.52340000       1.59510000
H       -2.63770000       0.69320000       0.78630000
H       -2.99720000      -2.25490000      -0.14750000
H       -1.83320000      -1.58600000      -2.09210000
H       -2.12610000       0.09850000      -1.62370000
