14
Properties=species:S:1:pos:R:3 gdb_45348=T pbc="F F F"
O       -0.10330000      -0.03610000       0.15110000
C       -0.13360000       1.14490000       0.03500000
C       -1.20940000       2.24110000      -0.12130000
C       -0.03760000       3.25400000      -0.02480000
C        0.27110000       3.99510000       1.28650000
O        1.57780000       3.52110000       1.66480000
C        1.86940000       2.32630000       1.06320000
O        2.76650000       1.61540000       1.38420000
N        0.91570000       2.12910000       0.03390000
H       -1.75280000       2.21900000      -1.06750000
H       -1.92220000       2.26260000       0.70640000
H        0.10360000       3.88560000      -0.90430000
H        0.32610000       5.07840000       1.17210000
H       -0.43720000       3.75320000       2.08780000
