22
Properties=species:S:1:pos:R:3 gdb_77417=T pbc="F F F"
C       -0.06780000       1.62890000      -0.03210000
C        0.15270000       0.11900000       0.05670000
C        1.39020000      -0.71610000      -0.20660000
C        1.47440000      -1.78920000      -1.25540000
C        2.67950000      -0.15950000       0.46700000
N        2.39030000       1.12240000       1.16130000
C        2.03330000      -0.17580000       1.79080000
C        0.71460000      -0.73330000       1.17740000
C       -0.04980000      -1.82800000       1.86730000
H        0.70510000       2.12100000      -0.62440000
H       -1.03740000       1.82920000      -0.50260000
H       -0.06350000       2.10140000       0.95120000
H       -0.69500000      -0.42500000      -0.36380000
H        1.80080000      -1.38080000      -2.22060000
H        2.18760000      -2.57430000      -0.97430000
H        0.50170000      -2.26610000      -1.41260000
H        3.68840000      -0.42750000       0.17830000
H        3.26550000       1.42350000       1.59220000
H        2.42890000      -0.45920000       2.75830000
H       -0.61390000      -1.44230000       2.72630000
H       -0.76740000      -2.29850000       1.18760000
H        0.61830000      -2.61410000       2.24090000
