19
Properties=species:S:1:pos:R:3 gdb_83462=T pbc="F F F"
C        0.15020000       1.64090000       0.05530000
C        0.10700000       0.13010000       0.10660000
C        1.29200000      -0.74170000      -0.18610000
O        2.50950000      -0.12590000       0.23830000
C        2.06360000      -0.16450000       1.61940000
C        0.70390000      -0.73630000       1.21370000
C       -0.06470000      -1.76730000       1.99810000
C       -0.81440000      -1.13980000       3.16030000
O       -0.72830000      -1.49670000       4.30600000
H        1.16220000       2.00860000       0.23950000
H       -0.15260000       1.99710000      -0.93470000
H       -0.52350000       2.08900000       0.79330000
H       -0.81690000      -0.31160000      -0.26580000
H        1.35430000      -1.50330000      -0.95610000
H        2.66890000      -0.87430000       2.19520000
H        2.09370000       0.82000000       2.10030000
H       -0.81150000      -2.23740000       1.34280000
H        0.58570000      -2.55600000       2.39040000
H       -1.46870000      -0.28510000       2.87010000
