17
Properties=species:S:1:pos:R:3 gdb_91527=T pbc="F F F"
N        0.07100000       1.27190000      -0.22470000
C        0.00270000      -0.04300000       0.13290000
O        0.95020000      -0.66680000       0.58250000
C       -1.31570000      -0.69320000      -0.09510000
N       -1.71160000      -1.79650000       0.82040000
C       -1.55050000      -2.08400000      -0.60880000
C       -2.85880000      -1.66770000      -1.28140000
C       -2.63360000      -0.20750000      -0.72160000
O       -3.57480000       0.34200000       0.15570000
H        0.91210000       1.77100000       0.01830000
H       -0.76900000       1.80750000      -0.36760000
H       -0.84450000      -2.06860000       1.28790000
H       -0.80020000      -2.78330000      -0.95430000
H       -2.82850000      -1.70610000      -2.37210000
H       -3.75470000      -2.17390000      -0.91410000
H       -2.48700000       0.51260000      -1.53120000
H       -3.58580000      -0.24490000       0.92440000
