21
Properties=species:S:1:pos:R:3 gdb_98447=T pbc="F F F"
C        0.22000000       1.34820000      -0.09270000
O        0.01470000      -0.06320000       0.03640000
C       -1.26570000      -0.47750000      -0.09300000
O       -2.18270000       0.27750000      -0.30430000
C       -1.37120000      -1.97690000       0.09400000
C       -0.49660000      -2.72160000      -0.92020000
C       -1.13490000      -2.45960000       1.56860000
C       -2.42550000      -3.31580000       1.46380000
C       -2.82410000      -2.52280000       0.18990000
H        1.29000000       1.50730000       0.04300000
H       -0.09620000       1.69660000      -1.07930000
H       -0.34700000       1.89250000       0.66700000
H        0.55290000      -2.43450000      -0.81760000
H       -0.57540000      -3.80260000      -0.76590000
H       -0.81440000      -2.50740000      -1.94650000
H       -0.19220000      -2.97990000       1.75460000
H       -1.23020000      -1.64600000       2.29230000
H       -2.21160000      -4.36740000       1.25670000
H       -3.11480000      -3.26860000       2.30920000
H       -3.53280000      -1.71780000       0.39050000
H       -3.18020000      -3.09770000      -0.66870000
