17
Properties=species:S:1:pos:R:3 gdb_93326=T pbc="F F F"
O        0.15680000       1.33500000      -0.35670000
C        0.03540000      -0.03480000      -0.05840000
C        0.54740000      -0.45290000       1.33550000
C       -0.10710000      -1.82150000       1.57770000
C       -1.38940000      -1.81310000       0.73490000
O       -2.19920000      -2.69360000       0.66460000
C       -1.44750000      -0.46760000      -0.05080000
C       -2.31040000       0.45430000       0.67600000
C       -3.03500000       1.17220000       1.31170000
H        1.09050000       1.56740000      -0.32440000
H        0.54450000      -0.64750000      -0.82200000
H        1.63960000      -0.48100000       1.38520000
H        0.19210000       0.28390000       2.06260000
H        0.51360000      -2.65210000       1.22100000
H       -0.34190000      -2.03310000       2.62390000
H       -1.84360000      -0.64390000      -1.05470000
H       -3.67710000       1.82260000       1.85220000
