16
Properties=species:S:1:pos:R:3 gdb_23271=T pbc="F F F"
O       -0.07070000       1.33150000       0.15980000
N        0.02670000      -0.06610000       0.21080000
C       -1.09890000      -0.61890000       0.00870000
C       -2.42430000       0.04440000      -0.29950000
C       -3.24250000      -1.09010000      -0.88410000
O       -2.58240000      -1.73690000      -1.98240000
C       -2.55070000      -2.37110000      -0.69320000
C       -1.21680000      -2.14820000       0.00390000
O       -0.13680000      -2.82710000      -0.59090000
H        0.84340000       1.60480000       0.29430000
H       -2.89030000       0.44050000       0.61190000
H       -2.30020000       0.88480000      -0.98850000
H       -4.32290000      -1.01570000      -0.96930000
H       -3.05680000      -3.32960000      -0.62540000
H       -1.27170000      -2.52490000       1.03360000
H       -0.03540000      -2.46370000      -1.47900000
