16
Properties=species:S:1:pos:R:3 gdb_67901=T pbc="F F F"
C       -0.02760000       1.55220000      -0.02670000
C        0.01370000       0.04660000       0.04960000
N       -1.22430000      -0.65140000       0.40490000
C       -0.64930000      -1.47020000       1.36930000
O       -1.08960000      -2.35870000       2.04110000
C        0.72070000      -0.76160000       1.18900000
C        1.62550000      -1.41380000       0.10960000
O        0.78150000      -2.08960000      -0.82770000
C        0.95770000      -0.68410000      -0.97820000
H        0.98320000       1.96150000      -0.12710000
H       -0.60620000       1.88360000      -0.89720000
H       -0.48800000       1.97530000       0.87020000
H       -2.03060000      -0.86210000      -0.16840000
H        1.20320000      -0.27730000       2.03510000
H        2.64220000      -1.77120000       0.21450000
H        1.32140000      -0.31890000      -1.93280000
