19
Properties=species:S:1:pos:R:3 gdb_93256=T pbc="F F F"
O       -0.10670000       1.45690000       0.07090000
C        0.00700000       0.04400000       0.00180000
C        0.79200000      -0.52440000       1.19420000
C        0.82510000      -2.06660000       1.17240000
C       -0.57460000      -2.62840000       1.03720000
O       -1.04630000      -3.46600000       1.77590000
C       -1.41690000      -2.05430000      -0.10030000
O       -2.71690000      -2.57110000      -0.06330000
C       -1.41480000      -0.51690000      -0.02380000
H        0.78000000       1.83140000       0.06010000
H        0.52120000      -0.25100000      -0.93050000
H        1.81720000      -0.13500000       1.19530000
H        0.31450000      -0.17230000       2.11630000
H        1.40840000      -2.40650000       0.30540000
H        1.29080000      -2.48070000       2.06930000
H       -0.91550000      -2.35390000      -1.03990000
H       -2.71180000      -3.21730000       0.66160000
H       -1.94170000      -0.20460000       0.88550000
H       -1.96730000      -0.10940000      -0.87460000
