16
Properties=species:S:1:pos:R:3 gdb_97616=T pbc="F F F"
C        0.05510000       1.52970000       0.05560000
C       -0.03310000      -0.00220000      -0.07730000
C       -1.40420000      -0.49760000      -0.03590000
C       -2.55110000      -0.86260000      -0.00120000
C       -3.90930000      -1.39750000       0.03700000
C       -3.81880000      -2.95290000       0.06200000
O       -4.23680000      -3.63930000      -0.82240000
C       -4.65670000      -0.94240000       1.21690000
N       -5.25390000      -0.62610000       2.15370000
H        1.10010000       1.84980000       0.02240000
H       -0.48340000       2.02240000      -0.75800000
H       -0.37940000       1.86360000       1.00120000
H        0.43460000      -0.32160000      -1.01680000
H        0.54270000      -0.47780000       0.72630000
H       -4.47190000      -1.13270000      -0.86580000
H       -3.30620000      -3.35200000       0.95910000
