12
Properties=species:S:1:pos:R:3 gdb_24981=T pbc="F F F"
N       -0.09400000       1.21420000       0.07090000
C       -0.01160000      -0.02960000       0.03310000
O        1.15190000      -0.81610000       0.04730000
C        0.69250000      -2.09990000       0.14880000
C       -0.62860000      -2.11690000       0.14100000
O       -1.12710000      -3.26510000      -0.39580000
C        0.05890000      -4.10020000      -0.33590000
O        1.22100000      -3.23510000      -0.39630000
O       -1.13080000      -0.85330000       0.04000000
H        0.82250000       1.65250000       0.07610000
H        0.06440000      -4.61580000       0.63370000
H        0.06700000      -4.78720000      -1.18020000
