17
Properties=species:S:1:pos:R:3 gdb_48154=T pbc="F F F"
N       -0.03370000       1.42120000      -0.08590000
C        0.00120000       0.14840000       0.01830000
N       -1.12140000      -0.62920000       0.13480000
C       -2.44640000      -0.08130000       0.04460000
C       -3.21650000      -0.13350000      -1.30260000
O       -4.33100000      -0.79630000      -0.66960000
C       -3.60130000      -0.96430000       0.55870000
C        1.29490000      -0.63830000       0.06410000
O        2.37380000      -0.11310000       0.00070000
H        0.92720000       1.76810000      -0.09870000
H       -1.01830000      -1.62220000      -0.00930000
H       -2.41720000       0.92020000       0.47250000
H       -3.50200000       0.82490000      -1.74790000
H       -2.73650000      -0.76270000      -2.06520000
H       -3.31570000      -2.01360000       0.73270000
H       -4.15680000      -0.60120000       1.42990000
H        1.19160000      -1.74350000       0.16130000
