13
Properties=species:S:1:pos:R:3 gdb_125802=T pbc="F F F"
C       -0.01480000       1.49960000      -0.01950000
C       -0.00820000       0.00980000       0.06380000
N       -0.04560000      -0.72450000      -1.03310000
O       -0.02930000      -2.08960000      -0.66850000
C        0.01850000      -2.12180000       0.66990000
C        0.03390000      -0.86450000       1.18460000
O        0.08170000      -0.89550000       2.52440000
N        0.09830000      -2.25350000       2.89700000
C        0.06080000      -2.97760000       1.79590000
H        0.88410000       1.91650000       0.44530000
H       -0.05250000       1.81070000      -1.06450000
H       -0.88050000       1.91220000       0.50780000
H        0.06640000      -4.05350000       1.87990000
