16
Properties=species:S:1:pos:R:3 gdb_52344=T pbc="F F F"
N       -0.13140000       1.32310000       0.00970000
C       -0.05170000       0.06460000       0.00250000
O       -1.17630000      -0.68010000       0.00910000
C       -0.99640000      -2.09360000      -0.00010000
C       -2.39720000      -2.71490000       0.01010000
C       -2.34960000      -4.16740000       0.00200000
C       -2.28940000      -5.37580000      -0.00510000
C       -2.22350000      -6.73500000      -0.01290000
C       -2.16380000      -7.94090000      -0.01980000
H        0.80120000       1.73100000       0.00320000
H        0.87080000      -0.53280000      -0.00930000
H       -0.44830000      -2.40830000      -0.89680000
H       -0.43120000      -2.41770000       0.88250000
H       -2.93410000      -2.35490000       0.89600000
H       -2.95100000      -2.34560000      -0.86160000
H       -2.11310000      -9.00150000      -0.02580000
