19
Properties=species:S:1:pos:R:3 gdb_72466=T pbc="F F F"
O       -0.03950000       1.39760000      -0.01010000
C       -0.00040000      -0.01690000       0.00690000
C        0.59060000      -0.59950000       1.32600000
O       -0.20180000      -1.73830000       1.67320000
C       -1.05800000      -2.00340000       0.54550000
C       -1.41820000      -0.59890000       0.05410000
C       -0.28830000      -2.74470000      -0.53480000
C        0.54030000      -2.07810000      -1.33860000
C        0.72470000      -0.58260000      -1.22980000
H        0.85990000       1.72310000      -0.12580000
H        1.64470000      -0.88930000       1.21550000
H        0.51160000       0.14670000       2.12480000
H       -1.90310000      -2.58570000       0.91710000
H       -2.02100000      -0.06620000       0.79430000
H       -1.92340000      -0.58080000      -0.91390000
H       -0.39360000      -3.82290000      -0.60450000
H        1.11930000      -2.59750000      -2.09810000
H        0.34370000      -0.07850000      -2.12920000
H        1.79760000      -0.34230000      -1.17670000
