21
Properties=species:S:1:pos:R:3 gdb_51469=T pbc="F F F"
O       -0.29230000       1.28420000       1.13200000
C        0.14050000       1.31450000       0.00840000
C        1.53880000       1.75440000      -0.37020000
C        1.47970000       2.94460000      -1.31890000
C        1.16290000       4.36800000      -0.90860000
C        1.29570000       4.78920000       0.55110000
C        2.75040000       4.45210000       0.97820000
C        3.55830000       4.22590000      -0.32900000
C        2.53800000       4.02070000      -1.44200000
H       -0.50150000       1.02670000      -0.85770000
H        2.09000000       1.96050000       0.54690000
H        2.03350000       0.91610000      -0.88160000
H        1.04010000       2.67560000      -2.27770000
H        0.44780000       4.90860000      -1.51990000
H        1.11500000       5.86750000       0.61800000
H        0.56110000       4.30410000       1.20220000
H        3.18560000       5.25350000       1.58160000
H        2.76980000       3.55930000       1.60800000
H        4.15600000       5.11180000      -0.57000000
H        4.26290000       3.39180000      -0.23430000
H        2.83490000       4.30070000      -2.44750000
