17
Properties=species:S:1:pos:R:3 gdb_31765=T pbc="F F F"
C       -0.09200000       1.44210000      -0.02750000
O       -0.01070000       0.02960000      -0.17570000
C       -1.15050000      -0.65420000       0.04080000
C       -1.24890000      -2.03830000      -0.00970000
N       -2.60780000      -2.24420000       0.15420000
C       -3.74560000      -3.01400000       0.70480000
C       -4.49560000      -1.63230000       0.85800000
C       -3.18510000      -1.04720000       0.36660000
N       -2.35280000      -0.02990000       0.30940000
H        0.91050000       1.82040000      -0.23560000
H       -0.81120000       1.87470000      -0.73020000
H       -0.39350000       1.71970000       0.98810000
H       -0.52740000      -2.79950000      -0.24410000
H       -4.17180000      -3.73700000       0.00500000
H       -3.51770000      -3.50260000       1.65580000
H       -5.36770000      -1.49800000       0.21340000
H       -4.76630000      -1.38520000       1.88730000
