21
Properties=species:S:1:pos:R:3 gdb_112922=T pbc="F F F"
C        0.12440000       1.49440000       0.11810000
C        0.09240000      -0.02100000      -0.00300000
C        0.81190000      -0.54970000      -1.24860000
C        1.03340000      -2.03480000      -1.13820000
C        0.91510000      -2.67480000       0.02140000
C        0.59910000      -1.96240000       1.30990000
C        1.56730000      -2.32170000       2.44230000
O        2.89330000      -1.95260000       2.13330000
O        0.69850000      -0.54770000       1.17710000
H        1.15780000       1.84840000       0.19080000
H       -0.33880000       1.95880000      -0.75780000
H       -0.41350000       1.82030000       1.01210000
H       -0.95530000      -0.36420000      -0.03800000
H        0.21660000      -0.31770000      -2.14110000
H        1.77090000      -0.02700000      -1.37750000
H        1.28840000      -2.57890000      -2.04360000
H        1.04970000      -3.75110000       0.08740000
H       -0.42230000      -2.23280000       1.63950000
H        1.21400000      -1.83270000       3.36400000
H        1.55750000      -3.40410000       2.60920000
H        2.83490000      -1.04820000       1.80190000
