18
Properties=species:S:1:pos:R:3 gdb_61036=T pbc="F F F"
C        0.05800000       1.37980000       0.24040000
C       -0.04460000      -0.13210000       0.04590000
C       -1.48230000      -0.63280000       0.08080000
O       -2.43970000       0.07830000       0.25510000
C        0.63210000      -0.59270000      -1.25710000
N        2.10560000      -0.37080000      -1.32570000
C        2.37940000      -1.76210000      -1.77530000
C        0.91610000      -2.09580000      -1.45390000
O        0.27350000      -3.09620000      -1.34080000
H        1.10640000       1.68860000       0.23730000
H       -0.47170000       1.91190000      -0.55600000
H       -0.39500000       1.67940000       1.18820000
H        0.47740000      -0.64930000       0.86580000
H       -1.59560000      -1.72720000      -0.06920000
H        0.08240000      -0.18970000      -2.12300000
H        2.38330000       0.33920000      -1.99230000
H        2.60340000      -1.88610000      -2.84390000
H        3.14050000      -2.29220000      -1.19310000
