14
Properties=species:S:1:pos:R:3 gdb_13298=T pbc="F F F"
N       -0.68700000      -0.36690000      -1.15720000
C       -0.24200000       0.30530000      -0.33060000
C        0.31280000       1.14710000       0.73030000
C        1.61680000       1.79020000       0.34440000
N        2.70560000       1.66510000       0.97950000
C        3.69130000       2.49220000       0.26200000
C        2.91350000       3.06950000      -0.95080000
O        1.56460000       2.57270000      -0.76030000
H       -0.41820000       1.92830000       0.97090000
H        0.48100000       0.54980000       1.62870000
H        4.07270000       3.27230000       0.92870000
H        4.54280000       1.87510000      -0.03980000
H        2.87230000       4.16100000      -0.97240000
H        3.27450000       2.70580000      -1.91620000
