21
Properties=species:S:1:pos:R:3 gdb_53434=T pbc="F F F"
C        0.47300000       1.54190000      -0.69840000
C        0.27010000       0.14410000      -0.34390000
C        0.10270000      -1.01240000      -0.05110000
C       -0.08570000      -2.40860000       0.30870000
C        0.07360000      -2.72950000       1.81220000
C       -0.60420000      -4.09490000       1.88980000
O       -1.69440000      -4.03940000       0.97720000
C       -1.49430000      -3.01160000      -0.00180000
C       -2.65500000      -2.02640000       0.06310000
H        1.07130000       2.06180000       0.05810000
H        0.99560000       1.63890000      -1.65660000
H       -0.48100000       2.07340000      -0.78690000
H        0.65240000      -3.01210000      -0.23630000
H        1.11800000      -2.74170000       2.13110000
H       -0.46220000      -1.98950000       2.41390000
H        0.09700000      -4.89560000       1.60360000
H       -0.99850000      -4.33210000       2.88310000
H       -1.47770000      -3.48290000      -0.99350000
H       -2.66090000      -1.48370000       1.01330000
H       -2.59180000      -1.29770000      -0.74950000
H       -3.59820000      -2.57260000      -0.02490000
