27
Properties=species:S:1:pos:R:3 gdb_60376=T pbc="F F F"
C        0.11150000       1.43850000      -0.32150000
C        0.07590000      -0.05440000       0.03300000
C        0.76480000      -0.30230000       1.38280000
C       -1.37170000      -0.58020000       0.00400000
C       -1.50800000      -2.10280000       0.15590000
C       -2.92600000      -2.62690000      -0.03230000
C       -3.94140000      -2.16110000       0.99540000
C       -3.40920000      -2.84790000      -1.44700000
C       -3.07820000      -4.03140000      -0.56620000
H        1.13840000       1.81880000      -0.34120000
H       -0.33610000       1.62730000      -1.30310000
H       -0.44560000       2.02880000       0.41620000
H        0.64210000      -0.59640000      -0.73910000
H        0.82840000      -1.36710000       1.62480000
H        1.78470000       0.09660000       1.38060000
H        0.21780000       0.19250000       2.19500000
H       -1.94440000      -0.07270000       0.79210000
H       -1.83450000      -0.28300000      -0.94640000
H       -0.85200000      -2.59050000      -0.57770000
H       -1.14500000      -2.41520000       1.14400000
H       -4.07790000      -1.07460000       0.97010000
H       -4.91980000      -2.61830000       0.81710000
H       -3.62760000      -2.43310000       2.01070000
H       -4.45290000      -2.65420000      -1.67210000
H       -2.73240000      -2.61760000      -2.26370000
H       -2.17930000      -4.59690000      -0.78970000
H       -3.89890000      -4.63610000      -0.19380000
