17
Properties=species:S:1:pos:R:3 gdb_33935=T pbc="F F F"
C        0.05240000      -1.20780000       0.01210000
C        0.04890000      -0.00430000       0.02080000
C        0.02670000       1.42420000       0.05470000
C        0.29970000       2.25380000      -1.19430000
C        1.29410000       2.28710000      -0.07300000
C        1.23820000       3.39720000       0.97950000
C       -0.12180000       3.27400000       1.65200000
O       -1.24360000       3.43810000       0.77030000
C       -0.83580000       2.10880000       1.10820000
H        0.05900000      -2.26920000      -0.00310000
H        0.57810000       1.70010000      -2.08340000
H       -0.34580000       3.10860000      -1.35180000
H        2.24500000       1.79380000      -0.23730000
H        2.02100000       3.23880000       1.72980000
H        1.39010000       4.39520000       0.55400000
H       -0.27110000       3.65660000       2.65910000
H       -1.55580000       1.51570000       1.66330000
