18
Properties=species:S:1:pos:R:3 gdb_121716=T pbc="F F F"
O        0.13610000       1.40500000       0.00800000
C        0.10250000      -0.01150000       0.00110000
C       -1.35930000      -0.43900000       0.01230000
C       -1.51810000      -1.95750000       0.00590000
C       -2.98150000      -2.39380000       0.01760000
O       -3.91240000      -1.63320000       0.03190000
N       -3.12610000      -3.79450000       0.01090000
C       -4.30370000      -4.53790000       0.01880000
O       -5.42310000      -4.10960000       0.03270000
H        1.05530000       1.68690000       0.00080000
H        0.60510000      -0.41970000      -0.89240000
H        0.62120000      -0.42880000       0.88110000
H       -1.85120000      -0.01760000       0.89390000
H       -1.86710000      -0.00860000      -0.85590000
H       -1.03420000      -2.39820000      -0.87750000
H       -1.01760000      -2.40720000       0.87540000
H       -2.27390000      -4.33630000      -0.00100000
H       -4.06490000      -5.62200000       0.00980000
