16
Properties=species:S:1:pos:R:3 gdb_108729=T pbc="F F F"
C       -0.03260000       1.41610000       0.14560000
N       -0.03380000      -0.01780000      -0.06350000
C        0.59370000      -0.60340000      -1.10320000
C        1.24120000      -0.03060000      -2.15930000
C        1.73000000      -1.05820000      -3.07710000
O        2.29080000      -0.92750000      -4.14440000
C        1.37210000      -2.41040000      -2.43720000
O        1.98920000      -2.61240000      -1.14890000
C        0.64770000      -2.10670000      -1.20610000
H        0.97550000       1.80110000       0.34790000
H       -0.42090000       1.92440000      -0.74340000
H       -0.67850000       1.65740000       0.99130000
H       -0.31790000      -0.60510000       0.70270000
H        1.43360000       1.02240000      -2.30620000
H        1.22060000      -3.29700000      -3.04420000
H       -0.12790000      -2.73320000      -0.77370000
