18
Properties=species:S:1:pos:R:3 gdb_72044=T pbc="F F F"
C       -0.13750000       1.44020000      -0.02710000
C        0.03130000      -0.04840000      -0.01410000
C        0.95330000      -0.89210000      -0.90010000
C        0.11310000      -2.12020000      -0.46420000
C        0.40490000      -2.25110000       1.05470000
C       -0.30070000      -0.90460000       1.20670000
C       -1.06370000      -1.11570000      -0.10130000
C       -2.43460000      -1.04020000      -0.41900000
N       -3.56000000      -0.97980000      -0.69200000
H        0.75030000       1.93540000       0.38260000
H       -0.29120000       1.81230000      -1.04520000
H       -0.99910000       1.74700000       0.57440000
H        0.80790000      -0.64800000      -1.95600000
H        2.02420000      -0.91200000      -0.66730000
H        0.01590000      -2.99520000      -1.10110000
H       -0.17340000      -3.05540000       1.51570000
H        1.45540000      -2.32670000       1.35550000
H       -0.70080000      -0.45360000       2.10590000
