16
Properties=species:S:1:pos:R:3 gdb_22209=T pbc="F F F"
N       -0.01510000       1.16440000       0.65700000
C       -0.05250000      -0.13160000       0.24960000
N        1.14700000      -0.76800000       0.12150000
H        1.05470000      -1.66610000      -0.34100000
H        1.93890000      -0.20590000      -0.15200000
C       -1.24730000      -0.80110000      -0.02890000
C       -2.64410000      -0.25380000       0.17030000
C       -2.86580000       0.50060000       1.39780000
C       -3.02590000       1.15380000       2.39700000
N       -1.07020000      -2.04370000      -0.57040000
O       -2.08380000      -2.70400000      -0.84480000
H        0.81510000       1.46220000       1.14710000
H       -0.87760000       1.54370000       1.02740000
H       -2.94940000       0.36360000      -0.68730000
H       -3.29180000      -1.14100000       0.13640000
H       -3.20780000       1.69570000       3.29210000
