17
Properties=species:S:1:pos:R:3 gdb_24664=T pbc="F F F"
C        0.18150000       1.51000000       0.01290000
O        1.18010000       0.51710000      -0.20620000
C       -0.16150000       0.07440000       0.01370000
C       -0.44390000      -0.67620000       1.26890000
C        0.45980000      -0.66010000       2.33470000
C        0.17170000      -1.34750000       3.50920000
C       -1.02060000      -2.05890000       3.63270000
C       -1.92090000      -2.08590000       2.57030000
C       -1.63090000      -1.40210000       1.39290000
H        0.24380000       2.03450000       0.96520000
H       -0.06570000       2.12630000      -0.85080000
H       -0.65280000      -0.31610000      -0.87840000
H        1.39460000      -0.12290000       2.21990000
H        0.88270000      -1.33310000       4.32900000
H       -1.24300000      -2.59560000       4.54900000
H       -2.84710000      -2.64470000       2.65500000
H       -2.33150000      -1.43050000       0.56320000
