18
Properties=species:S:1:pos:R:3 gdb_93159=T pbc="F F F"
N        0.27490000       1.58300000       0.09120000
C        0.08630000       0.13400000       0.06150000
C       -1.41430000      -0.21600000       0.23110000
C       -2.36250000      -0.09390000      -0.94520000
C       -2.17670000      -0.16200000      -2.26720000
C       -0.89610000      -0.29220000      -3.04470000
O        0.23690000       0.19050000      -2.31690000
C        0.54470000      -0.56790000      -1.20830000
O        1.03840000      -1.65660000      -1.28040000
H        1.26770000       1.79870000       0.06280000
H       -0.11790000       1.97780000      -0.75900000
H        0.62650000      -0.30400000       0.90500000
H       -1.47980000      -1.25270000       0.58970000
H       -1.78420000       0.41610000       1.04520000
H       -3.39880000      -0.00670000      -0.62240000
H       -3.06390000      -0.12980000      -2.89720000
H       -0.72230000      -1.33460000      -3.34980000
H       -0.94050000       0.31360000      -3.95430000
