21
Properties=species:S:1:pos:R:3 gdb_82936=T pbc="F F F"
C       -0.30000000       1.52990000      -0.08610000
C        0.02450000       0.05470000       0.06810000
C        1.33430000      -0.61850000      -0.32670000
C        2.64660000       0.17710000      -0.35400000
C        3.03410000       0.46660000       1.10700000
C        2.23440000       1.44210000       1.93420000
C        1.91260000      -0.03160000       1.99380000
C        0.85950000      -0.67780000       1.10450000
O        0.34590000      -1.88950000       1.58910000
H        0.58020000       2.14070000      -0.29780000
H       -0.98360000       1.66210000      -0.93160000
H       -0.79330000       1.94460000       0.79970000
H       -0.82010000      -0.57810000      -0.20010000
H        1.26390000      -1.49610000      -0.96060000
H        3.42320000      -0.43960000      -0.81680000
H        2.58070000       1.09070000      -0.95780000
H        4.07230000       0.31720000       1.38360000
H        2.73710000       1.85960000       2.80150000
H        1.55120000       2.13260000       1.46250000
H        2.11080000      -0.57460000       2.91070000
H       -0.36160000      -1.68250000       2.20930000
