15
Properties=species:S:1:pos:R:3 gdb_25660=T pbc="F F F"
C       -0.06810000       1.46460000      -0.02930000
C       -0.00910000       0.01190000      -0.01270000
C        0.05120000      -1.19460000       0.00090000
C        0.11220000      -2.59780000       0.01670000
C        1.15710000      -3.49280000       0.03670000
N        0.70460000      -4.79440000       0.04630000
C       -0.60050000      -4.68910000       0.03240000
O       -1.48590000      -5.69670000       0.03460000
N       -1.03300000      -3.40880000       0.01430000
H        0.93130000       1.89200000      -0.16680000
H       -0.69810000       1.83190000      -0.84760000
H       -0.47210000       1.86500000       0.90780000
H        2.21040000      -3.26140000       0.04450000
H       -0.96670000      -6.51100000       0.04860000
H       -1.98810000      -3.09390000       0.00170000
