20
Properties=species:S:1:pos:R:3 gdb_97959=T pbc="F F F"
C        0.09410000       1.09610000      -0.65630000
C       -0.16440000       0.22130000       0.58380000
C       -1.49190000      -0.38320000       0.59700000
C       -2.59020000      -0.87620000       0.58610000
C       -3.93030000      -1.43760000       0.60000000
O       -3.88710000      -2.76320000       0.03840000
C       -5.06670000      -3.41500000      -0.01580000
C       -4.87180000      -4.78160000      -0.62160000
N       -6.13670000      -2.87590000       0.40640000
H        1.10050000       1.52370000      -0.61850000
H        0.00330000       0.50670000      -1.57260000
H       -0.62710000       1.91610000      -0.71040000
H        0.59150000      -0.57270000       0.63820000
H       -0.03220000       0.82230000       1.49270000
H       -4.33500000      -1.49270000       1.61700000
H       -4.63080000      -0.82590000       0.01990000
H       -4.15850000      -5.35880000      -0.02560000
H       -5.81710000      -5.32400000      -0.67440000
H       -4.45250000      -4.69060000      -1.62800000
H       -6.92650000      -3.50610000       0.28930000
