16
Properties=species:S:1:pos:R:3 gdb_108732=T pbc="F F F"
O        0.18920000       1.34350000      -0.01130000
C        0.00740000      -0.04880000       0.11910000
C       -1.42200000      -0.49030000       0.11930000
C       -2.52080000       0.28140000       0.07330000
C       -3.75190000      -0.55170000       0.05430000
O       -4.90040000      -0.18000000       0.09370000
C       -3.27200000      -1.99780000       0.01870000
N       -2.46240000      -2.29260000      -1.20190000
C       -1.79840000      -1.94700000       0.08450000
H       -0.16070000       1.60620000      -0.86940000
H        0.54920000      -0.61330000      -0.66000000
H        0.47520000      -0.32940000       1.07260000
H       -2.54630000       1.36200000       0.03920000
H       -3.87580000      -2.77990000       0.46220000
H       -2.44430000      -3.30680000      -1.31810000
H       -1.20090000      -2.69410000       0.59520000
