17
Properties=species:S:1:pos:R:3 gdb_111405=T pbc="F F F"
O        0.06130000       1.46850000      -0.01970000
C        0.02410000       0.08030000      -0.26940000
C       -1.36030000      -0.51690000      -0.02850000
C       -1.50080000      -2.04540000      -0.10850000
O       -0.74720000      -2.61440000       0.97260000
C       -2.06940000      -2.13940000       1.24340000
C       -1.95630000      -0.61610000       1.43970000
C       -1.17760000      -0.18110000       2.65230000
O       -0.36070000       0.70870000       2.68990000
H        0.00800000       1.56030000       0.94290000
H        0.28100000      -0.05990000      -1.32670000
H        0.76970000      -0.46700000       0.32290000
H       -2.08860000      -0.01990000      -0.67560000
H       -1.66230000      -2.67240000      -0.97710000
H       -2.77910000      -2.83770000       1.67080000
H       -2.94370000      -0.14030000       1.49910000
H       -1.42500000      -0.74630000       3.57810000
