14
Properties=species:S:1:pos:R:3 gdb_34061=T pbc="F F F"
C       -0.11000000      -1.13230000      -0.00700000
C       -0.09020000       0.06950000      -0.05350000
C       -0.04510000       1.48200000      -0.08800000
O       -1.30530000       2.22710000       0.29770000
C       -0.53720000       3.31100000      -0.14330000
N       -0.05430000       4.16490000       0.65550000
C        1.39750000       3.75820000       0.66080000
C        1.36530000       2.35430000       0.00540000
C        0.37290000       2.46820000      -1.08940000
H       -0.13500000      -2.19380000       0.02740000
H        2.08240000       4.42900000       0.12020000
H        1.68590000       3.74710000       1.71560000
H        2.25800000       1.74050000      -0.08290000
H        0.42800000       2.43550000      -2.16930000
