17
Properties=species:S:1:pos:R:3 gdb_90747=T pbc="F F F"
C        0.42240000       1.43490000      -0.32260000
C        0.06370000       0.01890000       0.07640000
O        0.61970000      -0.97370000      -0.83320000
C        1.29360000      -1.64910000       0.24680000
C        0.76520000      -0.65610000       1.28990000
C        2.02290000      -0.00170000       1.86990000
O        3.12010000      -0.36050000       1.01130000
C        2.80270000      -1.39000000       0.17370000
O        3.61300000      -1.93470000      -0.51400000
H        1.50570000       1.57740000      -0.36900000
H        0.01160000       1.64950000      -1.31370000
H       -0.00240000       2.15670000       0.38370000
H       -1.02680000      -0.09640000       0.12010000
H        1.05990000      -2.71510000       0.29740000
H        0.09240000      -1.02600000       2.06190000
H        1.97210000       1.08900000       1.91060000
H        2.24050000      -0.37620000       2.87590000
