15
Properties=species:S:1:pos:R:3 gdb_2893=T pbc="F F F"
N        0.63430000      -1.05330000      -0.00590000
C        0.30550000       0.05540000       0.02100000
C       -0.05910000       1.49110000       0.03310000
C       -0.74530000       1.89220000       1.37090000
C        0.37670000       2.57640000       2.20020000
C        1.64560000       2.41610000       1.34450000
N        1.10630000       2.37400000      -0.02010000
H       -0.71080000       1.66870000      -0.82820000
H       -1.56180000       2.58570000       1.16260000
H       -1.17030000       1.02120000       1.87150000
H        0.14680000       3.63490000       2.34170000
H        0.49490000       2.12760000       3.18840000
H        2.34200000       3.25260000       1.44820000
H        2.17920000       1.49230000       1.62130000
H        1.78920000       2.06730000      -0.70440000
