21
Properties=species:S:1:pos:R:3 gdb_87196=T pbc="F F F"
C       -0.47640000       1.19520000      -0.27720000
N       -0.17280000      -0.17760000       0.09830000
C        1.11680000      -0.72890000      -0.30890000
C        0.83070000      -0.46080000       1.13320000
C        1.56470000       0.65300000       1.85500000
C        0.43750000      -1.64100000       2.02410000
C        1.63490000      -2.51010000       2.40310000
N        1.55710000      -3.80910000       1.99090000
O        2.60050000      -2.08530000       3.01180000
H        0.39840000       1.85910000      -0.34550000
H       -0.96670000       1.18620000      -1.25620000
H       -1.17740000       1.62490000       0.44580000
H        1.10210000      -1.74100000      -0.70850000
H        1.82440000      -0.06350000      -0.80280000
H        1.96680000       1.40210000       1.16980000
H        0.89690000       1.15900000       2.56310000
H        2.39020000       0.22270000       2.42630000
H       -0.00070000      -1.26470000       2.95630000
H       -0.33300000      -2.21850000       1.50690000
H        0.74560000      -4.18310000       1.53320000
H        2.30820000      -4.43260000       2.23840000
