15
Properties=species:S:1:pos:R:3 gdb_27440=T pbc="F F F"
N        0.05030000       1.32880000      -0.20590000
C       -0.05360000      -0.02770000      -0.01950000
N       -1.19930000      -0.58610000      -0.19210000
C       -1.47790000      -1.93690000       0.03870000
N       -2.60810000      -2.34180000       0.48050000
C       -0.49980000      -2.95530000      -0.38700000
C        0.83920000      -2.86780000      -0.29460000
N        1.59870000      -1.86190000       0.28680000
C        1.21250000      -0.65490000       0.43960000
H        0.95210000       1.72600000      -0.41180000
H       -0.74270000       1.77030000      -0.64600000
H       -3.19340000      -1.52970000       0.69140000
H       -0.93440000      -3.88430000      -0.74340000
H        1.44140000      -3.71580000      -0.60910000
H        1.91570000       0.02770000       0.92510000
