14
Properties=species:S:1:pos:R:3 gdb_132592=T pbc="F F F"
C       -0.03960000       1.53140000      -0.03900000
C       -0.00690000       0.03060000      -0.02940000
N       -0.08950000      -0.63870000      -1.17430000
C       -0.05890000      -1.97530000      -1.14860000
C        0.05770000      -2.63860000       0.06220000
F        0.08850000      -3.96440000       0.09610000
N        0.14250000      -2.01740000       1.22270000
C        0.11050000      -0.69420000       1.17690000
O        0.19400000      -0.01430000       2.33530000
H        0.87150000       1.94920000       0.40300000
H       -0.13520000       1.88440000      -1.06650000
H       -0.87870000       1.91210000       0.55330000
H       -0.12670000      -2.51630000      -2.08560000
H        0.26780000      -0.67070000       3.04240000
