17
Properties=species:S:1:pos:R:3 gdb_54479=T pbc="F F F"
C        0.03150000       1.33490000       0.56260000
C        0.00440000      -0.01610000      -0.11990000
O        0.96840000      -0.47700000      -0.69010000
C       -1.27920000      -0.80290000      -0.08290000
C       -2.61410000      -0.13610000      -0.04790000
N       -2.09180000      -0.76360000       1.17930000
C       -2.52610000      -2.12850000       1.28380000
N       -2.12050000      -2.97760000       0.43320000
C       -1.25180000      -2.26810000      -0.52200000
H        1.06670000       1.66120000       0.66750000
H       -0.50570000       2.07210000      -0.04560000
H       -0.46210000       1.28750000       1.53710000
H       -2.68620000       0.94610000      -0.00870000
H       -3.42970000      -0.63780000      -0.56320000
H       -3.17430000      -2.37770000       2.11870000
H       -1.61120000      -2.43360000      -1.54250000
H       -0.23130000      -2.65890000      -0.47260000
