23
Properties=species:S:1:pos:R:3 gdb_119466=T pbc="F F F"
C        0.09700000       1.62000000       0.03400000
C        0.14750000       0.09020000       0.04590000
C        0.57390000      -0.50820000      -1.30380000
C        0.60580000      -2.01160000      -1.30170000
C        1.77780000      -2.81820000      -0.81700000
C        1.33190000      -2.98260000      -2.24680000
C        0.09920000      -3.87020000      -2.31290000
O        0.33960000      -5.20710000      -1.92460000
C       -0.63850000      -2.91570000      -1.30810000
H        1.07700000       2.04680000      -0.20750000
H       -0.61460000       1.98750000      -0.71410000
H       -0.20830000       2.01800000       1.00680000
H        0.84130000      -0.25350000       0.82320000
H       -0.83780000      -0.30770000       0.32130000
H       -0.11290000      -0.15500000      -2.08670000
H        1.56730000      -0.12420000      -1.57270000
H        2.70370000      -2.26390000      -0.69480000
H        1.64690000      -3.63390000      -0.11150000
H        1.99240000      -2.76770000      -3.07880000
H       -0.37220000      -3.82960000      -3.30430000
H       -0.49860000      -5.68000000      -1.94520000
H       -0.91180000      -3.36510000      -0.34760000
H       -1.52210000      -2.44440000      -1.74810000
