15
Properties=species:S:1:pos:R:3 gdb_47579=T pbc="F F F"
O       -0.20960000       0.48720000       0.90700000
C        0.01310000       1.15490000      -0.05240000
O       -0.92150000       1.45480000      -1.00790000
C       -1.43090000       2.78490000      -1.02070000
O       -0.42260000       3.74860000      -0.90870000
C        0.62260000       3.52380000      -1.80930000
C        2.00730000       3.76330000      -1.28480000
C        1.51500000       2.35510000      -1.49120000
O        1.25600000       1.62400000      -0.31310000
H       -1.97570000       2.85600000      -1.96990000
H       -2.10040000       2.94910000      -0.17070000
H        0.38940000       3.73610000      -2.85170000
H        2.75860000       4.15830000      -1.95820000
H        2.07730000       4.09260000      -0.25470000
H        1.91940000       1.74180000      -2.28970000
