18
Properties=species:S:1:pos:R:3 gdb_8370=T pbc="F F F"
C        0.05850000       1.53170000      -0.22130000
C        0.07940000       0.02700000      -0.07430000
C        1.39050000      -0.72980000      -0.07320000
C        0.57660000      -0.62620000       1.18480000
C        0.98680000       0.07510000       2.49550000
C        0.31770000      -1.09140000       3.24940000
O        0.17590000      -1.35320000       4.40740000
C       -0.09330000      -1.79140000       1.93910000
H        0.91750000       1.99120000       0.27890000
H        0.09530000       1.82510000      -1.27600000
H       -0.84940000       1.96570000       0.21290000
H       -0.75120000      -0.48320000      -0.55810000
H        1.43810000      -1.69000000      -0.57750000
H        2.30680000      -0.14910000      -0.13310000
H        2.06160000       0.16320000       2.68650000
H        0.52150000       1.04730000       2.69170000
H       -1.17690000      -1.89190000       1.81270000
H        0.36310000      -2.77870000       1.80900000
