17
Properties=species:S:1:pos:R:3 gdb_54429=T pbc="F F F"
N        0.04990000       1.18400000       0.19840000
C       -0.00820000      -0.16580000      -0.00690000
O        0.99080000      -0.87160000      -0.10800000
C       -1.34810000      -0.77270000      -0.00820000
C       -1.71130000      -1.90870000      -0.95690000
C       -1.60230000      -2.18620000       0.50610000
O       -0.70800000      -3.06430000       1.07090000
C       -2.80040000      -1.60920000       1.26230000
N       -2.59860000      -0.25360000       0.60420000
H        0.95760000       1.61690000       0.12110000
H       -0.75430000       1.75510000      -0.00770000
H       -2.67190000      -1.84530000      -1.46160000
H       -0.87880000      -2.27810000      -1.54550000
H        0.17460000      -2.74750000       0.81840000
H       -3.78220000      -2.04950000       1.06460000
H       -2.61290000      -1.58610000       2.33860000
H       -2.36490000       0.41680000       1.33260000
