17
Properties=species:S:1:pos:R:3 gdb_29726=T pbc="F F F"
C        0.02390000       1.41680000       0.01910000
N        0.01200000      -0.03460000       0.00100000
C        0.01680000      -0.81860000      -1.12170000
C        0.03600000      -0.23550000      -2.49520000
C        0.00130000      -2.14460000      -0.71910000
C       -0.01350000      -2.17150000       0.68860000
C       -0.00660000      -0.85490000       1.12110000
C       -0.01560000      -0.33270000       2.42990000
N       -0.02290000       0.11380000       3.50130000
H        0.92210000       1.80560000      -0.47040000
H       -0.85660000       1.82030000      -0.49020000
H        0.01520000       1.75780000       1.05460000
H        0.92580000       0.38130000      -2.67100000
H        0.03680000      -1.03880000      -3.23450000
H       -0.83930000       0.39640000      -2.68930000
H        0.00090000      -2.99550000      -1.38290000
H       -0.02750000      -3.03620000       1.33280000
