21
Properties=species:S:1:pos:R:3 gdb_23167=T pbc="F F F"
C        0.37910000       1.21000000       0.43200000
C        0.14700000      -0.25990000       0.06670000
C       -1.33160000      -0.68090000       0.03580000
N       -2.16320000      -0.40290000      -1.18280000
C       -1.80550000       0.60610000      -2.15240000
C       -2.15270000      -1.82030000      -1.60630000
C       -1.54710000      -2.15150000      -0.26380000
N       -1.27860000      -3.18140000       0.41550000
O       -1.64040000      -4.35260000      -0.27790000
H        1.44930000       1.42750000       0.50380000
H       -0.04690000       1.89220000      -0.30880000
H       -0.07470000       1.44720000       1.40050000
H        0.62270000      -0.49770000      -0.89250000
H        0.63400000      -0.89910000       0.81250000
H       -1.82280000      -0.31980000       0.95000000
H       -0.79130000       0.49710000      -2.57890000
H       -2.51720000       0.56080000      -2.98420000
H       -1.88500000       1.60370000      -1.70900000
H       -3.13780000      -2.24480000      -1.83080000
H       -1.47410000      -2.05280000      -2.44480000
H       -1.40140000      -5.04230000       0.35050000
