18
Properties=species:S:1:pos:R:3 gdb_8070=T pbc="F F F"
C        0.12920000       1.29060000       0.16130000
O       -0.32390000       0.02290000      -0.26320000
C        0.48060000      -0.55660000      -1.25010000
C        1.75890000      -1.36770000      -0.85830000
C        0.82220000      -2.42580000      -0.20720000
C        0.16150000      -2.03900000      -1.57630000
O       -0.97910000      -2.54910000      -2.16080000
C        1.56780000      -2.12020000      -2.20920000
H        1.11510000       1.23320000       0.64510000
H        0.19820000       1.99700000      -0.68020000
H       -0.59730000       1.67160000       0.88300000
H        0.59370000       0.11860000      -2.11150000
H        2.69330000      -0.98240000      -0.45840000
H        1.21660000      -3.44240000      -0.13770000
H        0.29450000      -2.12180000       0.69640000
H       -1.73310000      -2.27070000      -1.62850000
H        1.72990000      -1.54930000      -3.12780000
H        2.01150000      -3.11580000      -2.26520000
