14
Properties=species:S:1:pos:R:3 gdb_45935=T pbc="F F F"
O       -0.04940000      -0.08230000       0.45450000
C       -0.01130000       1.10570000       0.22570000
C       -1.25730000       1.91890000      -0.14550000
C       -1.24760000       3.30520000       0.46440000
O       -2.16450000       3.80050000       1.06320000
C        0.08180000       4.07900000       0.25720000
O        0.14260000       5.27370000       0.36370000
C        1.28610000       3.22400000      -0.13580000
N        1.14080000       1.84310000       0.29570000
H       -1.26480000       2.02580000      -1.24090000
H       -2.15020000       1.36910000       0.14950000
H        1.42290000       3.31300000      -1.22650000
H        2.16950000       3.66450000       0.33170000
H        1.97570000       1.30600000       0.48070000
