21
Properties=species:S:1:pos:R:3 gdb_115413=T pbc="F F F"
C       -0.11200000       1.57010000       0.05920000
C       -0.07730000       0.04840000      -0.10810000
C       -1.43970000      -0.60670000       0.06680000
C       -1.47350000      -2.13240000      -0.06760000
C       -2.74670000      -2.50780000       0.70980000
C       -2.91690000      -1.32350000       1.71610000
O       -1.89420000      -0.37460000       1.40300000
C       -4.24970000      -0.71840000       1.65350000
C       -5.34610000      -0.22820000       1.60030000
H        0.88660000       2.00210000      -0.05660000
H       -0.76560000       2.03520000      -0.68720000
H       -0.49080000       1.83900000       1.04840000
H        0.30110000      -0.21400000      -1.10410000
H        0.61160000      -0.39480000       0.62150000
H       -2.15560000      -0.15860000      -0.64500000
H       -1.49860000      -2.46850000      -1.10730000
H       -0.58310000      -2.55820000       0.40780000
H       -3.61260000      -2.56060000       0.04650000
H       -2.66590000      -3.46420000       1.22980000
H       -2.72950000      -1.65170000       2.74510000
H       -6.31230000       0.21060000       1.56090000
