15
Properties=species:S:1:pos:R:3 gdb_6662=T pbc="F F F"
N        0.07500000       1.23030000       0.00360000
C       -0.17440000      -0.12370000      -0.15090000
O        0.40690000      -0.81910000      -0.96430000
N       -1.12650000      -0.62960000       0.71280000
C       -1.29310000      -2.07090000       0.81070000
C       -2.07640000      -2.62670000      -0.39920000
C       -2.32180000      -4.05980000      -0.27500000
N       -2.51180000      -5.19290000      -0.15080000
H        0.59700000       1.62250000      -0.76510000
H       -0.67180000       1.81840000       0.34100000
H       -1.33710000      -0.09440000       1.53960000
H       -0.32070000      -2.57170000       0.86050000
H       -1.83720000      -2.28590000       1.73320000
H       -3.03490000      -2.10530000      -0.49330000
H       -1.49730000      -2.43050000      -1.30570000
