17
Properties=species:S:1:pos:R:3 gdb_34203=T pbc="F F F"
N        0.06110000      -1.13490000       0.07820000
C        0.02620000       0.02040000       0.04030000
C       -0.00850000       1.46970000       0.01760000
C       -1.11450000       2.17730000       0.83920000
C       -1.29500000       3.12840000      -0.35800000
C       -0.23030000       4.23600000      -0.47540000
C        0.71440000       3.16540000      -1.05470000
C        1.34480000       2.22260000      -0.01350000
N       -0.46590000       2.19990000      -1.26310000
H       -1.98050000       1.52650000       0.97420000
H       -0.82710000       2.59830000       1.80590000
H       -2.31600000       3.36220000      -0.66200000
H       -0.50530000       4.97760000      -1.22920000
H        0.07630000       4.75630000       0.43670000
H        1.31990000       3.42920000      -1.92260000
H        1.70360000       2.64490000       0.92850000
H        2.12940000       1.60220000      -0.45070000
