21
Properties=species:S:1:pos:R:3 gdb_39985=T pbc="F F F"
C       -0.02930000       1.50440000      -0.00770000
C        1.29670000       0.77520000       0.00710000
C        0.00750000       0.00110000       0.01030000
C       -0.47470000      -0.85160000       1.19760000
C       -1.10290000      -2.00970000       0.41960000
C       -0.20370000      -2.35040000      -0.81650000
C       -1.47270000      -2.72370000      -1.61700000
C       -1.85070000      -1.44470000      -0.83490000
C       -0.44330000      -0.84260000      -1.16120000
H       -0.33740000       2.01950000       0.89680000
H       -0.32690000       2.00310000      -0.92510000
H        1.89300000       0.78240000      -0.90020000
H        1.88110000       0.79950000       0.92170000
H        0.34580000      -1.18340000       1.84380000
H       -1.20540000      -0.33040000       1.82640000
H       -1.56010000      -2.82980000       0.97740000
H        0.75800000      -2.86800000      -0.79820000
H       -1.41260000      -2.63670000      -2.70590000
H       -1.98340000      -3.64650000      -1.32580000
H       -2.80300000      -0.90980000      -0.83810000
H       -0.23570000      -0.48560000      -2.17280000
