17
Properties=species:S:1:pos:R:3 gdb_43843=T pbc="F F F"
N       -0.11390000       1.30040000       0.06710000
C       -0.03530000       0.03110000      -0.00860000
N       -1.07520000      -0.84110000      -0.17710000
C       -0.73350000      -2.23840000      -0.05980000
C       -1.54410000      -3.15460000       0.82150000
C       -1.60330000      -3.28430000      -0.69080000
C        0.79110000      -2.28400000      -0.10160000
C        1.21850000      -0.82760000       0.05870000
O        2.33090000      -0.39710000       0.20840000
H        0.83360000       1.67000000       0.16810000
H       -2.02890000      -0.51730000      -0.14750000
H       -1.02430000      -3.92130000       1.38660000
H       -2.40900000      -2.73640000       1.32630000
H       -2.50840000      -2.95500000      -1.19120000
H       -1.12440000      -4.13930000      -1.15660000
H        1.23420000      -2.90710000       0.67850000
H        1.16350000      -2.64700000      -1.06660000
