20
Properties=species:S:1:pos:R:3 gdb_111655=T pbc="F F F"
C       -0.22660000       1.48230000      -0.12530000
C        0.22570000       0.03480000       0.11290000
C        0.82500000      -0.58310000      -1.13570000
C        0.98420000      -2.05170000      -1.40140000
N        0.08070000      -1.21590000      -2.22430000
C       -1.32030000      -1.61110000      -1.89940000
C       -1.30450000      -2.68970000      -0.79760000
C        0.18160000      -3.00600000      -0.56940000
O        0.62160000      -3.90370000       0.10310000
H        0.60690000       2.10190000      -0.47310000
H       -1.01480000       1.53730000      -0.88300000
H       -0.61270000       1.92790000       0.79610000
H        0.99540000       0.01810000       0.89440000
H       -0.60920000      -0.55310000       0.50210000
H        1.64570000       0.01900000      -1.52800000
H        1.90130000      -2.42830000      -1.84370000
H       -1.89870000      -0.72510000      -1.62390000
H       -1.75300000      -2.00540000      -2.82240000
H       -1.76620000      -2.38560000       0.14710000
H       -1.80690000      -3.61040000      -1.10700000
