14
Properties=species:S:1:pos:R:3 gdb_22030=T pbc="F F F"
O       -0.14470000       1.37210000       0.02970000
N        0.05680000      -0.02700000      -0.00500000
C       -1.07350000      -0.65890000      -0.00200000
C       -2.39950000      -0.03350000       0.02320000
N       -3.52150000      -0.67220000       0.02930000
N       -3.46280000      -2.03020000       0.05370000
C       -2.27990000      -2.73870000      -0.01250000
O       -2.39980000      -4.08880000      -0.07770000
C       -1.09120000      -2.10560000      -0.01810000
H        0.75970000       1.69900000       0.02810000
H       -2.47270000       1.04570000       0.02450000
H       -4.32900000      -2.47730000      -0.20220000
H       -3.11570000      -4.38080000       0.49970000
H       -0.17000000      -2.67080000      -0.01620000
