18
Properties=species:S:1:pos:R:3 gdb_18017=T pbc="F F F"
C        0.10390000       0.68220000      -0.48730000
O       -0.46280000       0.01010000       0.61910000
C        0.48920000      -0.46650000       1.52160000
C       -0.12260000      -1.39720000       2.60290000
C        0.80160000      -2.55440000       2.14200000
C        0.26000000      -3.35770000       0.94320000
O        0.83420000      -2.42810000      -0.00830000
C        1.41280000      -1.64070000       1.04170000
H        0.71740000       0.00680000      -1.09740000
H       -0.72380000       1.05530000      -1.09510000
H        0.72190000       1.53650000      -0.16800000
H        1.08370000       0.36060000       1.94550000
H        0.05680000      -1.05820000       3.62530000
H       -1.19290000      -1.57370000       2.47100000
H        1.37970000      -3.09040000       2.89260000
H        0.69090000      -4.35940000       0.82160000
H       -0.83170000      -3.42140000       0.85690000
H        2.47660000      -1.44140000       0.88380000
