22
Properties=species:S:1:pos:R:3 gdb_101784=T pbc="F F F"
C       -0.55910000       1.85050000       0.23990000
C       -0.45120000       0.39040000      -0.20560000
C       -1.64480000      -0.48550000       0.18260000
C       -1.46470000      -1.92030000      -0.31830000
O       -1.75030000      -0.43650000       1.61310000
C       -2.96770000      -0.90640000       2.15390000
C       -4.10800000       0.12180000       2.20020000
N       -3.71520000       1.40830000       2.01050000
O       -5.25260000      -0.22290000       2.41880000
H        0.28440000       2.43700000      -0.13650000
H       -1.47780000       2.31620000      -0.13470000
H       -0.55000000       1.92810000       1.33120000
H       -0.34460000       0.34260000      -1.29560000
H        0.45600000      -0.05870000       0.21730000
H       -2.56080000      -0.05740000      -0.25620000
H       -2.31400000      -2.55820000      -0.05960000
H       -1.36990000      -1.92990000      -1.40860000
H       -0.56060000      -2.36120000       0.11320000
H       -3.35350000      -1.79220000       1.63850000
H       -2.76140000      -1.20230000       3.18880000
H       -2.73830000       1.62790000       1.91780000
H       -4.39370000       2.14400000       2.11490000
