18
Properties=species:S:1:pos:R:3 gdb_77765=T pbc="F F F"
C        0.05050000       1.46140000      -0.31290000
N        0.03210000       0.02550000      -0.02930000
C       -1.06640000      -0.49110000       0.89690000
C       -0.10850000      -1.70100000       1.05990000
O       -0.09310000      -2.88570000       1.10070000
C        0.80880000      -0.45660000       1.19370000
C       -0.31030000       0.06790000       2.12900000
C       -0.46330000       1.30400000       2.95220000
C       -0.54070000      -0.06710000       3.60100000
H        1.01300000       1.70540000      -0.77360000
H       -0.73090000       1.67330000      -1.04940000
H       -0.09830000       2.11930000       0.55210000
H       -2.12370000      -0.44060000       0.64280000
H        1.89040000      -0.36670000       1.27810000
H        0.41760000       1.90820000       3.14360000
H       -1.38140000       1.87510000       2.85890000
H       -1.51090000      -0.41580000       3.93920000
H        0.28950000      -0.38270000       4.22420000
