17
Properties=species:S:1:pos:R:3 gdb_75992=T pbc="F F F"
C       -0.13870000       1.31020000       0.55820000
N       -0.02740000      -0.10910000       0.33640000
C       -1.09930000      -1.05740000      -0.01350000
C       -1.94290000      -0.64250000      -1.12300000
C       -2.60390000      -0.28980000      -2.06420000
C        0.07080000      -2.05770000      -0.43550000
O        0.01090000      -2.71390000      -1.65220000
C        0.99060000      -0.83970000      -0.26590000
N        2.19080000      -0.63830000      -0.60910000
H        0.86390000       1.72340000       0.69970000
H       -0.61410000       1.82450000      -0.28820000
H       -0.72040000       1.51550000       1.46290000
H       -1.70590000      -1.37150000       0.84320000
H       -3.20690000       0.01690000      -2.88340000
H        0.22690000      -2.81730000       0.33360000
H       -0.02510000      -2.05500000      -2.35540000
H        2.49490000       0.31670000      -0.41010000
