22
Properties=species:S:1:pos:R:3 gdb_11134=T pbc="F F F"
C        0.05400000       1.49870000       0.16650000
C       -0.11950000      -0.00880000      -0.04640000
C        0.66030000      -0.54160000      -1.24110000
C        2.21660000      -0.57560000      -1.17810000
C        2.17940000      -1.94800000      -1.90320000
C        3.14510000      -3.02310000      -1.45360000
O        2.84110000      -4.21460000      -2.16640000
C        0.68340000      -2.07290000      -1.50730000
H        1.10620000       1.75800000       0.32700000
H       -0.29510000       2.06370000      -0.70520000
H       -0.51030000       1.84800000       1.03680000
H        0.19870000      -0.54710000       0.85710000
H       -1.18480000      -0.24150000      -0.17910000
H        0.34390000      -0.01270000      -2.14900000
H        2.77410000       0.23720000      -1.65020000
H        2.56600000      -0.68040000      -0.14340000
H        2.27740000      -1.81760000      -2.98620000
H        4.18170000      -2.69650000      -1.64380000
H        3.04510000      -3.17410000      -0.36530000
H        3.43430000      -4.90750000      -1.86240000
H        0.56730000      -2.64050000      -0.57660000
H       -0.00980000      -2.47780000      -2.24760000
