12
Properties=species:S:1:pos:R:3 gdb_50795=T pbc="F F F"
O       -0.40400000       0.11400000       0.00620000
C       -0.08350000       1.26820000       0.00920000
N        1.21960000       1.76760000      -0.00070000
C        2.41640000       1.03750000      -0.01590000
O        2.49190000      -0.16470000      -0.02310000
C        3.58160000       1.90570000      -0.02210000
C        4.58920000       2.57900000      -0.02790000
C        5.71460000       3.33880000      -0.03430000
C        6.71360000       4.01660000      -0.03990000
H       -0.80710000       2.10810000       0.02050000
H        1.31410000       2.77370000       0.00380000
H        7.59530000       4.60970000      -0.04500000
