18
Properties=species:S:1:pos:R:3 gdb_48772=T pbc="F F F"
O       -0.89320000       1.18080000      -0.32410000
C        0.22130000       0.88490000       0.04000000
C        1.37420000       1.81790000       0.03490000
C        1.08020000       3.31100000       0.05770000
C        1.62230000       2.70880000      -1.19370000
C        3.13250000       2.68970000      -1.43470000
C        3.71380000       1.77320000      -0.35250000
C        3.62650000       2.15350000       1.08060000
N        2.62790000       1.24470000       0.50260000
H        0.47580000      -0.13420000       0.39950000
H        0.02140000       3.54700000       0.06330000
H        1.69760000       3.96550000       0.66110000
H        0.95380000       2.62320000      -2.04320000
H        3.34210000       2.26930000      -2.42220000
H        3.57300000       3.69260000      -1.41330000
H        4.47160000       1.05710000      -0.65990000
H        4.29030000       1.68490000       1.80230000
H        3.34170000       3.16760000       1.34080000
