18
Properties=species:S:1:pos:R:3 gdb_85037=T pbc="F F F"
C       -0.02610000       1.39040000      -0.08390000
N        0.01220000      -0.04480000       0.05240000
C       -1.16040000      -0.88090000      -0.00980000
C       -0.58210000      -2.29380000      -0.01060000
O       -1.18480000      -3.34110000      -0.00980000
N        0.78770000      -2.13500000      -0.01700000
C        1.71730000      -3.24200000      -0.02750000
C        1.17460000      -0.77750000      -0.01330000
N        2.34640000      -0.28050000      -0.05510000
H        0.99710000       1.76130000      -0.01900000
H       -0.45500000       1.69520000      -1.04900000
H       -0.62450000       1.84170000       0.71640000
H       -1.83220000      -0.74770000       0.84830000
H       -1.75380000      -0.72380000      -0.92280000
H        1.12530000      -4.15820000      -0.01690000
H        2.34040000      -3.22350000      -0.92770000
H        2.36570000      -3.21760000       0.85440000
H        3.06250000      -0.99960000      -0.08620000
