15
Properties=species:S:1:pos:R:3 gdb_27995=T pbc="F F F"
C       -0.01850000       1.44670000      -0.01710000
C        0.02140000      -0.04530000      -0.01910000
N        0.04610000      -0.79040000      -1.09320000
C        0.07900000      -2.09930000      -0.65010000
O        0.11010000      -3.11540000      -1.52950000
C        0.07480000      -2.17230000       0.70730000
N        0.03720000      -0.83400000       1.12440000
C        0.01950000      -0.39870000       2.44500000
O        0.03470000      -1.13870000       3.39330000
H        0.85260000       1.88330000       0.48300000
H       -0.02250000       1.78100000      -1.05520000
H       -0.91640000       1.83610000       0.47470000
H        0.10350000      -2.71760000      -2.40890000
H        0.09320000      -2.98040000       1.41380000
H       -0.01040000       0.70090000       2.52200000
