11
Properties=species:S:1:pos:R:3 gdb_35986=T pbc="F F F"
N       -0.14370000      -1.17310000      -0.00290000
C       -0.07000000      -0.02150000       0.00260000
C        0.00530000       1.44520000       0.00980000
C        1.37410000       1.94540000      -0.00060000
C        2.50420000       2.37690000      -0.00910000
C        3.76730000       2.85890000      -0.01860000
C        4.90130000       3.29480000      -0.02710000
C        6.16980000       3.78420000      -0.03650000
N        7.25440000       4.20430000      -0.04460000
H       -0.54150000       1.82860000      -0.86180000
H       -0.52470000       1.81920000       0.89580000
