16
Properties=species:S:1:pos:R:3 gdb_45672=T pbc="F F F"
O        0.02460000      -0.02850000       0.00260000
C       -0.01670000       1.18010000       0.00860000
C       -1.24500000       2.11710000       0.03260000
C       -0.65860000       3.51280000       0.03060000
C        0.67230000       3.40170000       0.01000000
C        1.93680000       4.23030000      -0.00480000
C        3.01380000       3.15110000      -0.02640000
C        2.45700000       1.93370000      -0.02420000
N        1.06470000       2.04260000      -0.00290000
H       -1.87850000       1.90450000      -0.83670000
H       -1.85120000       1.89550000       0.91910000
H       -1.23280000       4.42650000       0.04400000
H        1.98740000       4.88990000      -0.88060000
H        2.01380000       4.88100000       0.87570000
H        4.07350000       3.35740000      -0.04130000
H        2.91160000       0.95470000      -0.03590000
