14
Properties=species:S:1:pos:R:3 gdb_27427=T pbc="F F F"
C       -0.01000000       1.42310000       0.22810000
C       -0.04230000      -0.02640000      -0.16220000
N       -1.18240000      -0.60420000      -0.35150000
C       -1.31870000      -1.96050000      -0.58240000
O       -1.99120000      -2.47390000      -1.44250000
C       -0.59050000      -2.76570000       0.46790000
N        0.68300000      -2.72080000       0.58730000
C        1.45330000      -1.82170000      -0.11860000
N        1.20830000      -0.58280000      -0.38130000
H        0.47830000       2.00380000      -0.56090000
H       -1.01970000       1.79730000       0.39280000
H        0.59210000       1.55300000       1.13350000
H       -1.16100000      -3.43110000       1.11820000
H        2.44140000      -2.20110000      -0.37640000
