18
Properties=species:S:1:pos:R:3 gdb_119188=T pbc="F F F"
C        0.06690000       1.51170000      -0.13250000
C        0.09400000       0.02020000       0.06740000
O        1.36410000      -0.63420000       0.10850000
C        0.56640000      -0.65840000       1.30240000
C        1.11480000       0.05880000       2.51870000
C        2.30860000      -0.67000000       3.13390000
O        2.73770000       0.10960000       4.23710000
C       -0.02010000      -1.96360000       1.58680000
N       -0.49410000      -2.98790000       1.83670000
H        0.84130000       2.02000000       0.44340000
H        0.22730000       1.73950000      -1.19110000
H       -0.91080000       1.91330000       0.15250000
H       -0.65110000      -0.52870000      -0.51090000
H        1.42830000       1.06710000       2.24250000
H        0.32440000       0.15180000       3.27170000
H        2.00940000      -1.68210000       3.44570000
H        3.09960000      -0.77390000       2.37610000
H        3.47990000      -0.33890000       4.65250000
