18
Properties=species:S:1:pos:R:3 gdb_62527=T pbc="F F F"
C       -0.10720000       1.45170000      -0.10350000
C       -0.01540000      -0.06430000       0.06580000
C       -1.37710000      -0.69640000       0.34340000
C        0.88430000      -0.78190000      -1.00680000
O        1.83320000      -1.15700000       0.05480000
C        1.08080000      -0.51650000       1.01720000
N        1.27740000      -0.37440000       2.24620000
C        0.36360000      -1.92130000      -1.72950000
C       -0.07750000      -2.85290000      -2.34760000
H        0.87260000       1.89570000      -0.30360000
H       -0.77830000       1.70820000      -0.93000000
H       -0.49960000       1.90550000       0.81090000
H       -2.07880000      -0.47440000      -0.46680000
H       -1.30600000      -1.78180000       0.44400000
H       -1.78290000      -0.29200000       1.27490000
H        1.37280000      -0.08240000      -1.69260000
H        2.14490000      -0.82250000       2.54600000
H       -0.46130000      -3.67990000      -2.89300000
