14
Properties=species:S:1:pos:R:3 gdb_813=T pbc="F F F"
O       -0.08250000       1.31130000      -0.02480000
N        0.02680000      -0.08700000       0.06010000
C       -1.10710000      -0.64640000       0.04390000
C       -2.55510000      -0.24710000      -0.14700000
C       -2.84400000      -1.74410000      -0.49540000
C       -1.42240000      -2.13360000       0.00670000
O       -0.68810000      -2.94900000      -0.87210000
H        0.83990000       1.58940000      -0.02550000
H       -3.03170000       0.09650000       0.77620000
H       -2.74110000       0.49630000      -0.92530000
H       -3.68680000      -2.21820000       0.00870000
H       -2.91700000      -1.91210000      -1.57130000
H       -1.45250000      -2.56220000       1.02160000
H        0.24600000      -2.76640000      -0.72260000
