17
Properties=species:S:1:pos:R:3 gdb_36240=T pbc="F F F"
C        0.01310000      -1.19260000       0.09710000
C       -0.03610000       0.00790000       0.05410000
C       -0.04550000       1.46520000       0.00350000
C        1.36890000       2.05770000       0.00080000
C        1.56610000       3.57530000       0.00130000
C        1.54360000       3.96780000       1.49050000
O        1.26220000       2.79540000       2.25470000
C        2.15690000       2.09390000       1.34300000
C        2.80380000       3.45540000       0.88970000
H        0.03630000      -2.25330000       0.13670000
H       -0.58200000       1.80090000      -0.89350000
H       -0.58590000       1.86750000       0.86730000
H        1.98850000       1.59750000      -0.77400000
H        1.37880000       4.28440000      -0.79520000
H        1.25100000       4.93460000       1.87740000
H        2.62720000       1.21780000       1.78220000
H        3.81280000       3.83230000       0.80560000
