19
Properties=species:S:1:pos:R:3 gdb_109009=T pbc="F F F"
C        0.16740000       1.51480000      -0.17590000
C       -0.09050000       0.02580000       0.11810000
C        0.60840000      -0.47020000       1.33970000
C        0.14260000      -0.97140000       2.48170000
C        1.39670000      -1.38430000       3.29000000
O        2.30650000      -0.34540000       2.89080000
C        2.15800000      -0.58780000       1.48500000
C        2.50870000      -2.09710000       1.42520000
C        2.03390000      -2.59750000       2.56100000
H        1.23360000       1.71730000      -0.31800000
H       -0.35570000       1.82620000      -1.08520000
H       -0.18150000       2.13930000       0.65170000
H       -1.16790000      -0.14620000       0.22060000
H        0.23570000      -0.56820000      -0.74890000
H       -0.88100000      -1.14510000       2.78290000
H        1.30400000      -1.44030000       4.37340000
H        2.77080000       0.09210000       0.89470000
H        2.98430000      -2.59680000       0.59380000
H        2.01190000      -3.61930000       2.91120000
