21
Properties=species:S:1:pos:R:3 gdb_113959=T pbc="F F F"
O       -0.35160000       1.50720000       0.69450000
C       -0.00110000       0.16920000       0.38510000
C       -1.03640000      -0.61330000      -0.41050000
C       -2.44320000      -0.14470000      -0.55210000
N       -1.54870000      -0.17990000      -1.70800000
C       -1.09040000       1.08500000      -2.28430000
C       -1.70910000       1.31410000      -3.65390000
C       -1.87250000       0.20430000      -4.61960000
N       -3.05450000       0.81900000      -3.97840000
H       -1.05850000       1.48340000       1.34710000
H        0.93140000       0.23340000      -0.18800000
H        0.22740000      -0.40510000       1.29610000
H       -0.85910000      -1.68860000      -0.36220000
H       -3.26700000      -0.85420000      -0.55520000
H       -2.68640000       0.83520000      -0.14500000
H       -1.29780000       1.94120000      -1.62880000
H        0.00040000       1.03930000      -2.40060000
H       -1.50910000       2.30910000      -4.04840000
H       -1.77940000       0.38850000      -5.68620000
H       -1.57890000      -0.78670000      -4.28690000
H       -3.35280000       0.19700000      -3.22960000
