19
Properties=species:S:1:pos:R:3 gdb_127125=T pbc="F F F"
C        0.03820000       1.39600000       0.08280000
N       -0.01020000      -0.01070000      -0.26200000
C        1.18280000      -0.77450000       0.06040000
C       -1.22380000      -0.66370000      -0.09690000
N       -1.27090000      -1.98040000       0.08230000
N       -2.61520000      -2.26310000       0.10180000
C       -3.38410000      -1.15590000      -0.00830000
N       -4.77610000      -1.22450000       0.09390000
C       -2.52670000      -0.08450000      -0.15340000
H        0.98980000       1.81350000      -0.25900000
H       -0.76170000       1.94190000      -0.42390000
H       -0.04940000       1.58610000       1.16650000
H        1.31400000      -0.92940000       1.14410000
H        1.12150000      -1.75660000      -0.41000000
H        2.05910000      -0.24430000      -0.32440000
H       -2.90870000      -3.17430000       0.40660000
H       -5.18030000      -1.95830000      -0.47620000
H       -5.21180000      -0.34360000      -0.14390000
H       -2.80560000       0.94300000      -0.31280000
