15
Properties=species:S:1:pos:R:3 gdb_98915=T pbc="F F F"
O        0.24300000       1.34550000       0.06710000
C        0.00060000      -0.01630000      -0.14880000
C       -1.44490000      -0.34390000       0.21250000
O       -2.26540000       0.49060000       0.47100000
C       -1.74290000      -1.86030000       0.22880000
C       -3.14920000      -2.19330000       0.13340000
C       -4.32150000      -2.47610000       0.04840000
C       -5.64060000      -2.79460000      -0.04860000
C       -6.81040000      -3.08080000      -0.13530000
H        1.14220000       1.53950000      -0.21320000
H        0.13980000      -0.31520000      -1.20360000
H        0.65990000      -0.67230000       0.44750000
H       -1.17080000      -2.35110000      -0.57040000
H       -1.32270000      -2.24880000       1.16900000
H       -7.84030000      -3.32720000      -0.20980000
