18
Properties=species:S:1:pos:R:3 gdb_15632=T pbc="F F F"
C        0.10100000       1.55420000      -0.10240000
C       -0.02100000       0.04200000       0.09580000
O        0.49070000      -0.63390000      -1.05570000
C        1.45650000      -1.61030000      -0.67360000
C        1.60910000      -1.45300000       0.81040000
C        0.77280000      -0.52090000       1.25420000
C        0.56570000      -0.06770000       2.66080000
O        1.36860000      -0.84460000       3.53070000
H        1.15260000       1.85010000      -0.16450000
H       -0.39750000       1.84700000      -1.03050000
H       -0.37100000       2.09770000       0.72340000
H       -1.09200000      -0.20690000       0.20920000
H        1.10680000      -2.61860000      -0.95110000
H        2.39410000      -1.43430000      -1.22340000
H        2.29150000      -2.03420000       1.41480000
H        0.81140000       1.00550000       2.74190000
H       -0.50640000      -0.15570000       2.91470000
H        1.25610000      -0.50580000       4.42330000
