20
Properties=species:S:1:pos:R:3 gdb_32583=T pbc="F F F"
C        0.04020000       1.53360000      -0.03380000
C       -0.00190000       0.00370000       0.03670000
N       -1.34690000      -0.54000000       0.02280000
C       -2.09120000      -0.85430000       1.12680000
C       -3.35920000      -1.22910000       0.72960000
C       -4.49790000      -1.67930000       1.59290000
C       -3.36800000      -1.12310000      -0.69220000
O       -4.40810000      -1.40670000      -1.53410000
C       -2.12840000      -0.69520000      -1.10610000
H        1.07650000       1.88650000      -0.01880000
H       -0.43230000       1.89430000      -0.95170000
H       -0.48800000       1.97510000       0.81620000
H        0.55130000      -0.42820000      -0.80470000
H        0.48650000      -0.34680000       0.95150000
H       -1.66350000      -0.79200000       2.11590000
H       -5.37630000      -1.02640000       1.49900000
H       -4.82760000      -2.69900000       1.35070000
H       -4.21190000      -1.67930000       2.64840000
H       -5.15510000      -1.69510000      -1.00190000
H       -1.74320000      -0.50230000      -2.09330000
