18
Properties=species:S:1:pos:R:3 gdb_127966=T pbc="F F F"
C        0.09720000       1.43870000      -0.03510000
N        0.04030000      -0.01080000      -0.00240000
C        0.56530000      -0.62960000       0.96170000
O        1.21490000      -0.09120000       2.07450000
C        1.56960000      -1.15770000       2.85760000
C        2.27360000      -0.89250000       4.13300000
N        1.23840000      -2.29440000       2.36400000
N        0.63040000      -1.98860000       1.16290000
C        0.02060000      -3.00060000       0.33990000
H        0.98140000       1.78660000      -0.58740000
H       -0.78160000       1.81940000      -0.56460000
H        0.12560000       1.90140000       0.96050000
H        1.66520000      -0.26170000       4.78940000
H        2.47800000      -1.83990000       4.63280000
H        3.21830000      -0.36800000       3.95470000
H        0.73960000      -3.79510000       0.12240000
H       -0.85840000      -3.43850000       0.82680000
H       -0.28610000      -2.51520000      -0.58760000
