21
Properties=species:S:1:pos:R:3 gdb_17349=T pbc="F F F"
C        0.00730000       1.61590000      -0.03170000
C       -0.02800000       0.10420000      -0.03010000
C        1.23900000      -0.69680000      -0.22580000
C        0.54870000      -0.69950000       1.11540000
N        1.18850000       0.01550000       2.18300000
C        0.61120000      -0.07550000       3.52010000
C        1.92820000      -0.71040000       3.21970000
C        2.09580000      -2.21390000       3.21480000
H        0.88450000       1.98080000       0.50650000
H        0.03810000       2.00570000      -1.05530000
H       -0.88050000       2.03310000       0.45690000
H       -0.92200000      -0.32700000      -0.47400000
H        1.21310000      -1.59800000      -0.82870000
H        2.16770000      -0.13870000      -0.28240000
H        0.00060000      -1.60520000       1.38140000
H        0.54490000       0.85360000       4.08100000
H       -0.23530000      -0.74800000       3.65990000
H        2.82240000      -0.17440000       3.53710000
H        1.16360000      -2.73720000       2.98920000
H        2.84550000      -2.52490000       2.47920000
H        2.43580000      -2.55290000       4.19910000
