19
Properties=species:S:1:pos:R:3 gdb_38456=T pbc="F F F"
C        0.18850000       1.66070000      -0.12460000
C        1.68310000       1.32030000      -0.09190000
O        1.93900000       0.64470000       1.14970000
C        1.41330000      -0.11530000       0.05600000
C       -0.12090000       0.13210000       0.05270000
C       -0.92100000      -0.37130000       1.25120000
C       -1.45110000      -1.71890000       0.74160000
C       -1.70410000      -1.40550000      -0.73740000
O       -0.74400000      -0.41000000      -1.10540000
H       -0.16310000       2.34300000       0.65370000
H       -0.15530000       1.99170000      -1.10690000
H        2.51650000       1.83870000      -0.55080000
H        1.96360000      -0.98890000      -0.27640000
H       -0.30600000      -0.43580000       2.15030000
H       -1.75090000       0.31460000       1.45760000
H       -0.68520000      -2.49520000       0.84340000
H       -2.34920000      -2.06240000       1.26010000
H       -1.57950000      -2.27250000      -1.39470000
H       -2.71720000      -1.00610000      -0.89090000
