15
Properties=species:S:1:pos:R:3 gdb_127526=T pbc="F F F"
C       -0.28780000       1.35270000      -0.02740000
N        0.03870000      -0.06230000      -0.00560000
N        0.21940000      -0.65720000      -1.20820000
C        0.51020000      -1.91680000      -1.19000000
O        0.69450000      -2.52890000      -2.37520000
N        0.65350000      -2.70940000      -0.07320000
C        0.47690000      -2.12210000       1.06160000
C        0.14430000      -0.70790000       1.21670000
N       -0.04580000      -0.05530000       2.31160000
H        0.46710000       1.91760000       0.52780000
H       -0.32250000       1.66600000      -1.06890000
H       -1.25020000       1.52040000       0.46550000
H        0.89980000      -3.45050000      -2.17420000
H        0.58100000      -2.71340000       1.97070000
H        0.06890000      -0.67470000       3.11200000
