20
Properties=species:S:1:pos:R:3 gdb_103200=T pbc="F F F"
C       -0.08530000       1.58820000       0.06220000
C       -0.01130000       0.05640000       0.03160000
C        0.62780000      -0.49850000      -1.24070000
O        1.99350000      -0.11210000      -1.33290000
C        0.56590000      -1.98490000      -1.54290000
C       -0.70180000      -2.28000000      -2.28030000
C       -1.47650000      -0.99030000      -2.49380000
C       -0.07570000      -0.36750000      -2.62300000
N        0.49840000      -1.76770000      -3.02660000
H        0.91200000       2.03990000       0.02470000
H       -0.66600000       1.98020000      -0.78060000
H       -0.56170000       1.93940000       0.98180000
H        0.58390000      -0.30170000       0.87990000
H       -1.01460000      -0.36390000       0.15530000
H        2.02430000       0.83630000      -1.49440000
H        1.19120000      -2.76110000      -1.11590000
H       -1.05100000      -3.29750000      -2.41820000
H       -1.98720000      -1.01130000      -3.46050000
H       -2.16160000      -0.61830000      -1.72600000
H        0.12080000       0.49470000      -3.25960000
