20
Properties=species:S:1:pos:R:3 gdb_87765=T pbc="F F F"
C        0.04230000       1.51500000      -0.01860000
C       -0.05700000       0.02340000       0.08520000
C       -1.36770000      -0.79870000       0.05250000
C       -0.70600000      -1.79270000       1.02900000
C       -1.37720000      -2.47180000       2.19290000
C       -0.83390000      -3.28140000       1.03340000
O       -1.72030000      -3.82250000       0.09570000
C        0.56270000      -0.96110000       1.04250000
N        1.08120000      -0.80010000      -0.31790000
H        1.06250000       1.84390000       0.19560000
H       -0.21450000       1.85430000      -1.02940000
H       -0.64110000       2.00620000       0.68230000
H       -2.21420000      -0.27200000       0.50260000
H       -1.66890000      -1.18820000      -0.92500000
H       -0.85480000      -2.51830000       3.14380000
H       -2.45660000      -2.38000000       2.26700000
H        0.06750000      -3.87020000       1.21010000
H       -2.16990000      -4.56920000       0.50520000
H        1.23880000      -0.81230000       1.87790000
H        0.81750000      -1.57900000      -0.92010000
