21
Properties=species:S:1:pos:R:3 gdb_71014=T pbc="F F F"
C       -0.02950000       1.54640000       0.02070000
C       -0.02830000       0.03500000       0.00210000
C        0.31330000      -0.76970000      -1.33750000
C       -0.39350000      -1.89770000      -0.55020000
C       -0.76150000      -3.37380000      -0.32250000
O       -0.24530000      -3.25140000       1.04620000
C        0.57710000      -2.13270000       0.58880000
C        0.73430000      -0.70590000       1.15710000
C       -1.33220000      -0.80790000       0.01810000
H        0.98530000       1.94710000      -0.08440000
H       -0.63590000       1.95560000      -0.79420000
H       -0.43750000       1.92590000       0.96470000
H       -0.24280000      -0.35350000      -2.18140000
H        1.36180000      -0.92270000      -1.60990000
H       -1.82060000      -3.64620000      -0.33700000
H       -0.17420000      -4.10150000      -0.89840000
H        1.54640000      -2.53840000       0.26560000
H        1.78450000      -0.41620000       1.25840000
H        0.23770000      -0.53640000       2.11660000
H       -1.81610000      -0.99270000       0.98050000
H       -2.06420000      -0.47600000      -0.72400000
