23
Properties=species:S:1:pos:R:3 gdb_66152=T pbc="F F F"
C        0.06050000       1.58840000      -0.12170000
C       -0.05810000       0.07930000      -0.03770000
C       -1.36390000      -0.47970000      -0.54930000
O       -1.48410000      -0.17810000      -1.93340000
C       -2.69260000      -0.59070000      -2.48510000
C       -3.90800000       0.29310000      -2.34930000
C       -3.17730000       0.17210000      -3.67340000
C        1.17980000      -0.75830000      -0.24370000
C        0.57240000      -0.63630000       1.13340000
H        1.03480000       1.92940000       0.24150000
H       -0.05720000       1.92650000      -1.15530000
H       -0.71170000       2.07900000       0.48340000
H       -1.39920000      -1.57090000      -0.39690000
H       -2.21290000      -0.04360000       0.00200000
H       -2.84910000      -1.67080000      -2.46600000
H       -4.88390000      -0.16810000      -2.24360000
H       -3.77920000       1.22030000      -1.80200000
H       -2.57110000       1.01650000      -3.98080000
H       -3.64540000      -0.37310000      -4.48520000
H        1.07700000      -1.70300000      -0.76680000
H        2.11510000      -0.24430000      -0.43790000
H        1.09030000      -0.03300000       1.87140000
H        0.06530000      -1.50180000       1.54790000
