26
Properties=species:S:1:pos:R:3 gdb_59990=T pbc="F F F"
C        0.82820000      -0.24390000      -1.25830000
C       -0.14420000      -0.18120000      -0.07130000
C       -1.37650000      -1.05440000      -0.34880000
C        0.58490000      -0.58400000       1.22420000
C       -0.15370000      -0.36640000       2.55580000
C        0.65750000      -0.95840000       3.71260000
N       -0.33730000       1.06930000       2.80000000
C       -1.58310000       1.68660000       2.35730000
C       -1.32910000       1.44240000       3.80190000
H        1.20900000      -1.26290000      -1.39970000
H        0.33770000       0.05770000      -2.19000000
H        1.68970000       0.41400000      -1.10340000
H       -0.47360000       0.86010000       0.03000000
H       -1.08870000      -2.10670000      -0.46450000
H       -2.11530000      -1.00290000       0.45660000
H       -1.87580000      -0.74540000      -1.27330000
H        0.85370000      -1.64740000       1.15380000
H        1.52870000      -0.02800000       1.28710000
H       -1.13260000      -0.88090000       2.52430000
H        0.81160000      -2.03180000       3.56780000
H        1.63650000      -0.47290000       3.77760000
H        0.14590000      -0.81530000       4.66910000
H       -1.49580000       2.68530000       1.93790000
H       -2.32990000       1.05650000       1.87720000
H       -1.90590000       0.64770000       4.27410000
H       -1.05340000       2.25730000       4.46540000
