19
Properties=species:S:1:pos:R:3 gdb_33649=T pbc="F F F"
C        0.00050000      -1.21970000      -0.03650000
C       -0.00700000      -0.01490000      -0.01550000
C       -0.01600000       1.40680000       0.00960000
C       -0.65120000       2.33320000       1.13190000
C        0.72790000       3.00670000       1.32670000
C        1.24960000       2.36570000       0.01880000
C        0.71210000       3.05190000      -1.25940000
C       -0.66510000       2.37270000      -1.07080000
C       -1.51960000       3.01480000       0.04810000
H        0.00630000      -2.28090000      -0.05500000
H       -1.15470000       1.93950000       2.01450000
H        0.75090000       4.09930000       1.39790000
H        1.24420000       2.58870000       2.19590000
H        2.27530000       1.99800000       0.00610000
H        0.73530000       4.14630000      -1.29310000
H        1.21690000       2.66400000      -2.14900000
H       -1.18010000       2.01050000      -1.96020000
H       -2.53290000       2.60230000       0.04700000
H       -1.58660000       4.10770000       0.06830000
