20
Properties=species:S:1:pos:R:3 gdb_64955=T pbc="F F F"
C       -0.17170000       1.27300000      -1.07180000
C       -0.09350000       0.21320000       0.00500000
C        0.91680000      -0.88500000      -0.13650000
N        1.09630000       0.14620000       0.88460000
C       -1.41200000      -0.11840000       0.66610000
O       -2.45390000       0.22960000       0.14180000
C       -1.38960000      -0.88980000       1.93960000
C       -2.55180000      -0.66510000       2.89490000
C       -2.48060000      -1.93880000       2.12810000
H        0.79760000       1.39550000      -1.56560000
H       -0.91830000       1.00300000      -1.82170000
H       -0.47120000       2.23690000      -0.64810000
H        0.70350000      -1.87930000       0.24570000
H        1.53560000      -0.86450000      -1.03000000
H        1.77690000       0.83630000       0.57610000
H       -0.41690000      -1.07930000       2.37170000
H       -2.32310000      -0.67380000       3.95420000
H       -3.28370000       0.06730000       2.57450000
H       -3.16620000      -2.05830000       1.29690000
H       -2.20220000      -2.85150000       2.64250000
