16
Properties=species:S:1:pos:R:3 gdb_23230=T pbc="F F F"
C        0.00590000       1.50410000       0.02970000
C        0.00770000       0.01170000      -0.07040000
C       -0.90030000      -0.93840000       0.74660000
O       -1.06660000      -2.16020000       0.02590000
C        0.35900000      -2.07540000      -0.27240000
C        0.56630000      -1.06040000       0.91880000
C        0.44730000      -0.85980000      -1.19080000
N        0.91500000      -0.57460000      -2.33080000
O        1.38930000      -1.73390000      -2.98930000
H        0.98420000       1.91690000      -0.23610000
H       -0.73600000       1.93770000      -0.64870000
H       -0.23720000       1.83070000       1.04590000
H       -1.69200000      -0.59250000       1.39900000
H        0.84430000      -3.02510000      -0.46920000
H        1.27010000      -0.97840000       1.73470000
H        1.69560000      -1.37320000      -3.82770000
