15
Properties=species:S:1:pos:R:3 gdb_124324=T pbc="F F F"
C       -0.12640000       1.50200000       0.01920000
C        0.06690000       0.00860000       0.00610000
O        1.12760000      -0.56180000       0.00660000
N       -1.12940000      -0.75890000      -0.00890000
C       -1.23470000      -2.12760000      -0.03100000
C       -2.58730000      -2.35060000      -0.03130000
N       -3.32000000      -3.52230000      -0.11080000
N       -3.23180000      -1.13400000      -0.00970000
N       -2.35540000      -0.18300000       0.00090000
H        0.85710000       1.96990000       0.03820000
H       -0.68530000       1.82300000      -0.86340000
H       -0.71260000       1.80570000       0.88980000
H       -0.36640000      -2.76020000      -0.04660000
H       -2.90230000      -4.31700000       0.35100000
H       -4.28070000      -3.38730000       0.17390000
