14
Properties=species:S:1:pos:R:3 gdb_49946=T pbc="F F F"
O       -0.00360000      -0.04100000      -0.34220000
C        0.03830000       1.08720000       0.07410000
C        1.27810000       1.91570000       0.05770000
C        1.17840000       3.39450000      -0.19160000
C        1.52330000       2.92830000       1.21370000
C        0.54970000       3.07480000       2.26470000
C       -0.25350000       3.21160000       3.14710000
C        2.90310000       3.05790000       1.62620000
N        4.01070000       3.16140000       1.94050000
H       -0.85800000       1.59570000       0.48770000
H        2.16070000       1.39800000      -0.29930000
H        1.96470000       3.86440000      -0.76900000
H        0.18990000       3.82390000      -0.30940000
H       -0.96040000       3.32820000       3.93180000
