20
Properties=species:S:1:pos:R:3 gdb_103528=T pbc="F F F"
C        0.07510000       1.55050000      -0.02150000
C       -0.02550000       0.02390000       0.01150000
C       -1.46840000      -0.52880000       0.03340000
C       -2.27570000      -0.03620000       1.24270000
N       -2.17160000      -0.15460000      -1.21900000
C       -2.46660000      -1.24510000      -1.80640000
N       -2.07770000      -2.41090000      -1.15690000
C       -1.42560000      -2.06600000       0.02510000
N       -0.90000000      -2.79520000       0.92230000
H        1.11910000       1.85810000      -0.13740000
H       -0.49820000       1.95890000      -0.85790000
H       -0.29840000       2.00530000       0.90070000
H        0.47730000      -0.39140000      -0.87020000
H        0.49240000      -0.38660000       0.88520000
H       -2.38500000       1.04970000       1.21520000
H       -3.27720000      -0.47610000       1.23950000
H       -1.77350000      -0.33290000       2.16740000
H       -2.98890000      -1.31420000      -2.75600000
H       -2.22710000      -3.34920000      -1.48870000
H       -0.98650000      -3.79120000       0.71330000
