21
Properties=species:S:1:pos:R:3 gdb_41528=T pbc="F F F"
C       -0.05790000       1.45770000      -0.16520000
C        1.38950000       1.56460000       0.40340000
C        1.31620000       0.06740000       0.67330000
C        1.83980000      -0.70200000       1.61930000
C        1.45340000      -2.11950000       1.93850000
C        0.32940000      -2.70810000       1.07350000
C       -0.90420000      -1.79920000       0.93690000
O       -0.87400000      -0.97600000      -0.21840000
C        0.19290000      -0.07080000      -0.34450000
H       -0.80500000       1.63510000       0.61240000
H       -0.30980000       2.03300000      -1.05820000
H        2.11690000       1.82690000      -0.37270000
H        1.55050000       2.21570000       1.26530000
H        2.58270000      -0.25720000       2.28150000
H        2.33920000      -2.76900000       1.89280000
H        1.13820000      -2.14930000       2.99320000
H        0.69030000      -2.93130000       0.06290000
H        0.02280000      -3.66530000       1.51100000
H       -1.80640000      -2.40470000       0.80840000
H       -1.03970000      -1.20030000       1.85130000
H        0.63000000      -0.22860000      -1.34270000
