18
Properties=species:S:1:pos:R:3 gdb_34235=T pbc="F F F"
N        0.02250000      -1.16450000       0.04410000
C       -0.01780000      -0.00770000       0.03280000
C       -0.07120000       1.42810000       0.02250000
C       -1.11930000       2.25730000       0.78730000
C       -0.64800000       3.39470000      -0.15470000
C        0.78850000       3.63410000       0.35970000
C        1.31420000       2.24290000      -0.04530000
C        1.15390000       2.28870000      -1.58760000
C       -0.34500000       2.29530000      -1.26540000
H       -2.12630000       1.90060000       0.55670000
H       -1.00650000       2.39540000       1.86630000
H       -1.27910000       4.25630000      -0.36250000
H        1.32380000       4.43480000      -0.15800000
H        0.81670000       3.83310000       1.43430000
H        2.21150000       1.85470000       0.43260000
H        1.59660000       3.13640000      -2.11830000
H        1.44480000       1.35200000      -2.07020000
H       -1.13420000       2.04700000      -1.97250000
