20
Properties=species:S:1:pos:R:3 gdb_87496=T pbc="F F F"
C        0.45480000       1.73020000      -0.13520000
C        0.14180000       0.27500000       0.09530000
O        1.26870000      -0.64890000       0.01790000
C        0.63020000      -0.47340000       1.24130000
C        1.23710000      -0.14480000       2.61630000
C       -0.19910000      -0.35410000       3.18600000
C        0.07910000      -1.53510000       2.20610000
N        1.51590000      -1.64260000       2.70970000
C        1.75410000      -2.22740000       4.02510000
H        1.34930000       2.02790000       0.41770000
H        0.62740000       1.92310000      -1.19910000
H       -0.38260000       2.35860000       0.18770000
H       -0.74770000      -0.09910000      -0.41470000
H        1.98590000       0.60090000       2.88520000
H       -0.26920000      -0.60650000       4.24190000
H       -0.96890000       0.36980000       2.90390000
H       -0.52850000      -2.41500000       1.99240000
H        1.67830000      -3.31590000       3.93350000
H        2.78190000      -1.99330000       4.32170000
H        1.08820000      -1.91180000       4.84340000
