19
Properties=species:S:1:pos:R:3 gdb_55135=T pbc="F F F"
C        0.01780000       1.29960000      -0.50730000
C        0.07210000      -0.05620000       0.17610000
O        1.05430000      -0.42750000       0.77560000
C       -1.19200000      -0.90640000       0.11430000
C       -1.71150000      -1.27740000      -1.32140000
C       -1.65600000      -2.81130000      -1.14710000
C       -2.29800000      -3.06290000       0.23390000
C       -0.98490000      -2.35030000       0.62460000
O       -0.34720000      -2.98910000      -0.52680000
H       -0.10040000       1.18100000      -1.58960000
H       -0.84810000       1.87250000      -0.15640000
H        0.93590000       1.85130000      -0.30210000
H       -1.96680000      -0.37600000       0.68270000
H       -2.71280000      -0.89510000      -1.53530000
H       -1.03540000      -0.95530000      -2.11660000
H       -1.82890000      -3.44090000      -2.01980000
H       -3.25870000      -2.59920000       0.47540000
H       -2.28190000      -4.11910000       0.50310000
H       -0.45760000      -2.49230000       1.56450000
