18
Properties=species:S:1:pos:R:3 gdb_57702=T pbc="F F F"
C       -0.77500000       1.31280000      -0.23060000
C       -0.11150000      -0.04630000       0.04740000
C        0.91480000       0.03890000       1.18070000
O       -1.06810000      -1.10180000       0.25850000
C       -1.95340000      -0.99520000       1.34390000
C       -3.19640000      -0.26710000       1.01820000
N       -4.17650000       0.29040000       0.76660000
C        0.58030000      -0.48780000      -1.25010000
O        1.63980000      -0.05860000      -1.61980000
H       -0.00540000       2.03300000      -0.52040000
H       -1.50840000       1.23750000      -1.03780000
H       -1.28370000       1.69600000       0.65840000
H        0.50070000       0.51670000       2.07340000
H        1.27530000      -0.95880000       1.44560000
H        1.76550000       0.63310000       0.83960000
H       -2.22950000      -2.01650000       1.62730000
H       -1.49460000      -0.52750000       2.22370000
H       -0.00600000      -1.22770000      -1.83520000
