19
Properties=species:S:1:pos:R:3 gdb_108764=T pbc="F F F"
C       -0.03870000       1.41070000       0.10500000
N       -0.05820000      -0.02650000      -0.07500000
C        0.60450000      -0.62090000      -1.10220000
C        1.21360000      -0.06770000      -2.17470000
C        1.73150000      -1.13770000      -3.04330000
O        2.40460000      -1.05710000      -4.05040000
N        1.28860000      -2.33750000      -2.47540000
C        0.68690000      -2.14000000      -1.17230000
C        1.50700000      -2.75380000      -0.02690000
H        0.97680000       1.80130000       0.26210000
H       -0.45780000       1.90360000      -0.77880000
H       -0.65470000       1.67450000       0.96680000
H       -0.23980000      -0.58660000       0.74120000
H        1.33920000       0.97810000      -2.40690000
H        1.77740000      -3.18870000      -2.70330000
H       -0.33100000      -2.55770000      -1.14280000
H        2.51630000      -2.33270000      -0.01250000
H        1.03740000      -2.56920000       0.94580000
H        1.58200000      -3.83890000      -0.14920000
