13
Properties=species:S:1:pos:R:3 gdb_132464=T pbc="F F F"
F        0.11250000       0.04830000       0.00240000
C       -0.05680000       1.36300000       0.01110000
C       -1.25840000       1.97160000       0.03040000
C       -1.24910000       3.40630000       0.03720000
C       -0.08850000       4.09850000       0.02480000
F       -0.08030000       5.42610000       0.03110000
C        1.22410000       3.46380000       0.00380000
N        2.31460000       4.13340000      -0.00780000
N        1.11730000       2.05690000      -0.00150000
H       -2.17070000       1.39550000       0.04010000
H       -2.18330000       3.95510000       0.05260000
H        3.13560000       3.52800000      -0.02190000
H        1.97210000       1.51960000      -0.01580000
