18
Properties=species:S:1:pos:R:3 gdb_125877=T pbc="F F F"
C       -0.10750000       1.52870000      -0.15800000
C        0.00880000       0.03200000       0.01300000
C        1.31770000      -0.67740000      -0.18070000
C        0.72190000      -0.60130000       1.20820000
C        1.35640000       0.19720000       2.27100000
N        2.28790000       1.12140000       2.05980000
N        2.54150000       1.57040000       3.31390000
C        1.78340000       0.90930000       4.20810000
N        1.01840000       0.03320000       3.59050000
H        0.78700000       2.03970000       0.20630000
H       -0.23840000       1.78470000      -1.21530000
H       -0.96990000       1.92410000       0.39030000
H       -0.87310000      -0.52180000      -0.29970000
H        1.33250000      -1.64340000      -0.67370000
H        2.19410000      -0.06300000      -0.35700000
H        0.25930000      -1.49870000       1.60240000
H        3.23180000       2.28810000       3.45990000
H        1.82400000       1.09420000       5.27130000
