18
Properties=species:S:1:pos:R:3 gdb_37269=T pbc="F F F"
C        0.02530000       1.48850000      -0.18550000
C        1.28460000       0.71690000      -0.02800000
C        1.87740000       0.49920000       1.35850000
C        1.14290000       1.16090000       2.53790000
C        0.89510000      -0.14550000       3.24840000
C       -0.25280000       0.51430000       2.52100000
C       -0.18600000      -0.47890000       1.34870000
C        1.23410000      -0.83360000       1.88450000
N       -0.03720000       0.02580000      -0.03620000
H       -0.30330000       2.11090000       0.64090000
H       -0.26370000       1.85030000      -1.16920000
H        1.91910000       0.54070000      -0.89420000
H        2.96460000       0.55980000       1.41430000
H        1.30130000       2.14280000       2.96490000
H        1.01060000      -0.43390000       4.28150000
H       -1.11590000       1.01470000       2.94010000
H       -0.93050000      -1.27500000       1.39240000
H        1.69040000      -1.80700000       1.72220000
