19
Properties=species:S:1:pos:R:3 gdb_114494=T pbc="F F F"
C       -0.08980000       1.48440000      -0.29970000
C        0.00650000      -0.02750000      -0.07130000
C       -1.35380000      -0.65170000       0.17740000
O       -2.26490000      -0.54260000      -0.95150000
C       -2.58380000      -1.94510000      -0.90330000
C       -1.76340000      -2.77150000      -1.92200000
C       -0.68580000      -2.94720000      -0.82850000
O        0.37150000      -3.50480000      -0.78790000
C       -1.52770000      -2.19490000       0.21820000
H        0.89620000       1.91570000      -0.49400000
H       -0.73370000       1.70270000      -1.15640000
H       -0.51150000       1.99160000       0.57520000
H        0.47670000      -0.50960000      -0.93540000
H        0.64430000      -0.24500000       0.79520000
H       -1.81910000      -0.19200000       1.06140000
H       -3.65340000      -2.13940000      -0.80980000
H       -2.22000000      -3.73430000      -2.17990000
H       -1.46690000      -2.25530000      -2.83800000
H       -1.69170000      -2.67040000       1.18410000
