20
Properties=species:S:1:pos:R:3 gdb_91182=T pbc="F F F"
C        0.27000000       1.58540000      -0.00830000
C        0.06830000       0.07800000       0.05150000
C        0.88550000      -0.81180000      -0.94330000
C        1.43980000      -1.64200000       0.24850000
N        2.86990000      -1.44320000       0.51570000
C        2.92110000      -0.53610000       1.40100000
O        1.78080000       0.00470000       1.89980000
C        0.68670000      -0.70770000       1.24940000
C       -0.23710000      -1.25640000       2.31300000
H        1.32700000       1.84940000       0.08500000
H       -0.09570000       1.98120000      -0.96180000
H       -0.27140000       2.09450000       0.79610000
H       -1.00140000      -0.14890000      -0.01050000
H        0.28670000      -1.36980000      -1.66680000
H        1.67510000      -0.27850000      -1.47830000
H        1.18640000      -2.70480000       0.25120000
H        3.83010000      -0.12560000       1.82790000
H       -0.70360000      -0.44610000       2.88320000
H       -1.03260000      -1.85190000       1.85430000
H        0.31210000      -1.89510000       3.01170000
