20
Properties=species:S:1:pos:R:3 gdb_95899=T pbc="F F F"
C       -0.37670000       1.55360000       0.03980000
C        0.02500000       0.06940000       0.05410000
C        0.92890000      -0.34730000      -1.14160000
C        1.67120000      -1.62840000      -0.68400000
C        1.47760000      -1.70540000       0.85670000
C        0.90420000      -0.34180000       1.27120000
O        1.91470000       0.65290000       1.37570000
C       -1.18860000      -0.76050000       0.06830000
N       -2.14430000      -1.41140000       0.07770000
H        0.52100000       2.17120000       0.08300000
H       -0.93250000       1.79030000      -0.87150000
H       -1.01030000       1.79840000       0.89680000
H        0.35190000      -0.48820000      -2.05780000
H        1.63710000       0.46690000      -1.31210000
H        1.26020000      -2.51870000      -1.16570000
H        2.72770000      -1.57930000      -0.95680000
H        0.76480000      -2.49250000       1.11980000
H        2.40520000      -1.92200000       1.39620000
H        0.31350000      -0.39350000       2.19590000
H        2.54880000       0.36150000       2.03760000
