20
Properties=species:S:1:pos:R:3 gdb_105691=T pbc="F F F"
C       -1.00060000       0.63960000      -0.29320000
C       -0.34120000      -0.68510000       0.11770000
C        0.68860000      -0.57810000       1.23340000
C        0.18880000      -0.23450000       2.62290000
O       -0.32330000       1.10280000       2.69950000
C        0.55290000       2.08200000       3.01690000
O        0.24480000       3.23570000       3.01670000
C        1.91270000      -1.42130000       1.15160000
N        2.00010000       0.03540000       0.95010000
H       -0.25190000       1.37280000      -0.61140000
H       -1.68410000       0.47610000      -1.13180000
H       -1.56270000       1.08370000       0.52980000
H       -1.11540000      -1.40090000       0.42420000
H        0.15020000      -1.13010000      -0.75680000
H       -0.63960000      -0.88560000       2.91540000
H        1.00130000      -0.35910000       3.34770000
H        1.55260000       1.69380000       3.28040000
H        2.39420000      -1.78870000       2.05430000
H        2.01590000      -2.07620000       0.29070000
H        2.07950000       0.24950000      -0.04120000
