14
Properties=species:S:1:pos:R:3 gdb_47786=T pbc="F F F"
O       -0.00120000       0.12680000       0.55970000
C       -0.05250000       1.20730000       0.04930000
O       -1.20650000       1.71000000      -0.41500000
C       -1.25000000       2.95920000      -1.13770000
C       -0.11420000       3.87810000      -0.74700000
O        1.11520000       3.18700000      -0.93980000
C        1.21990000       2.08670000      -0.06610000
C        1.61710000       2.51720000       1.29260000
N        1.91690000       2.90170000       2.33960000
H       -1.20110000       2.72740000      -2.20680000
H       -2.22460000       3.39950000      -0.91260000
H       -0.08950000       4.75420000      -1.39880000
H       -0.20940000       4.21680000       0.29450000
H        2.00220000       1.43410000      -0.46350000
