17
Properties=species:S:1:pos:R:3 gdb_42891=T pbc="F F F"
N       -0.22590000       1.17010000      -0.08800000
C       -0.04450000      -0.06620000       0.01360000
N        1.15990000      -0.88520000      -0.07810000
C        1.17070000      -1.69960000       1.17120000
C        0.25520000      -2.11510000       0.09940000
C       -1.00880000      -1.25260000       0.11150000
C       -2.17370000      -1.35420000       1.11420000
C       -3.05640000      -1.44400000      -0.14520000
O       -1.89110000      -1.42110000      -1.00450000
H        0.66420000       1.65610000      -0.23050000
H        2.09750000      -2.25010000       1.29730000
H        0.77790000      -1.25790000       2.08420000
H        0.39100000      -2.99570000      -0.51620000
H       -2.15490000      -2.24950000       1.73810000
H       -2.31950000      -0.47090000       1.73640000
H       -3.63400000      -2.36560000      -0.27480000
H       -3.70480000      -0.57990000      -0.32410000
