20
Properties=species:S:1:pos:R:3 gdb_71638=T pbc="F F F"
O       -0.07760000       1.38700000       0.01930000
C        0.03450000       0.00400000       0.02790000
C        0.61810000      -0.96310000       1.08240000
N        0.05620000      -1.91340000       0.02200000
C       -1.16850000      -0.95110000      -0.00550000
C       -2.06220000      -1.01850000      -1.23740000
C       -1.28380000      -1.57640000      -2.43490000
C        0.14140000      -1.01080000      -2.43490000
C        0.68620000      -0.94440000      -1.01450000
H        0.80670000       1.77010000       0.01480000
H        1.70530000      -1.02660000       1.18630000
H        0.11190000      -1.04010000       2.04820000
H       -1.74010000      -1.00980000       0.92570000
H       -2.94150000      -1.63720000      -1.03110000
H       -2.43130000      -0.00540000      -1.44370000
H       -1.22350000      -2.66460000      -2.33240000
H       -1.79710000      -1.36930000      -3.37860000
H        0.79630000      -1.62180000      -3.06480000
H        0.16080000       0.00480000      -2.85320000
H        1.78020000      -0.99220000      -0.98560000
