19
Properties=species:S:1:pos:R:3 gdb_68422=T pbc="F F F"
C       -0.03230000       1.52240000       0.05830000
C        0.04500000       0.01550000       0.04680000
C        0.95160000      -0.79880000      -0.93430000
C        0.67270000      -1.92830000       0.09510000
C        0.71270000      -0.82950000       1.18200000
N       -0.78520000      -2.17890000      -0.00820000
C       -1.28710000      -0.77620000      -0.12570000
C       -2.29010000      -0.46230000       0.90020000
N       -3.07430000      -0.17960000       1.70080000
H        0.95880000       1.96160000       0.20690000
H       -0.43070000       1.90670000      -0.88790000
H       -0.68400000       1.87750000       0.86350000
H        0.60800000      -0.94370000      -1.96420000
H        1.98270000      -0.43860000      -0.92480000
H        1.25620000      -2.84580000       0.15500000
H        1.72400000      -0.48370000       1.40230000
H        0.14910000      -1.00590000       2.10050000
H       -1.00110000      -2.69070000      -0.85810000
H       -1.73800000      -0.56980000      -1.10360000
