20
Properties=species:S:1:pos:R:3 gdb_97059=T pbc="F F F"
C       -0.01370000       1.43220000      -0.16550000
N        0.17300000      -0.01160000      -0.15140000
C        0.46440000      -0.56630000       0.94670000
C        0.68570000      -2.06000000       1.02470000
C        0.33880000      -2.62980000       2.37180000
C        0.44740000      -1.89250000       3.47390000
C        0.17880000      -2.38660000       4.86590000
C        0.90630000      -0.46430000       3.34030000
O        0.58320000       0.15950000       2.09450000
H        0.86590000       1.97000000       0.21270000
H       -0.20450000       1.75710000      -1.19140000
H       -0.86540000       1.73910000       0.45640000
H        0.10960000      -2.51700000       0.21800000
H        1.74230000      -2.26930000       0.79420000
H        0.02260000      -3.66800000       2.42390000
H       -0.08640000      -3.44670000       4.86530000
H        1.05720000      -2.25920000       5.51210000
H       -0.63950000      -1.82730000       5.33700000
H        0.44030000       0.16670000       4.10520000
H        1.99510000      -0.39860000       3.49590000
