15
Properties=species:S:1:pos:R:3 gdb_7928=T pbc="F F F"
C       -0.02510000       1.56450000       0.01850000
C        0.00120000       0.03420000       0.01900000
N        0.76690000      -0.55220000      -1.07200000
C        1.86680000      -1.25610000      -0.65560000
O        2.72800000      -1.77860000      -1.32060000
N        1.78930000      -1.26050000       0.74890000
C        0.72480000      -0.53140000       1.24530000
N        0.34550000      -0.30560000       2.43480000
H        0.99100000       1.96980000       0.01550000
H       -0.55470000       1.94300000      -0.86150000
H       -0.53960000       1.91490000       0.91620000
H       -1.02790000      -0.34560000       0.02010000
H        0.68670000      -0.26950000      -2.03330000
H        2.47680000      -1.74400000       1.30260000
H        0.95040000      -0.75570000       3.12280000
