19
Properties=species:S:1:pos:R:3 gdb_110576=T pbc="F F F"
C        0.07880000       1.34780000      -0.43480000
C        0.07170000      -0.12770000      -0.16300000
C        0.56910000      -1.30490000      -1.04050000
C        2.04870000      -1.38540000      -1.35810000
O        2.34560000      -0.35000000      -2.28820000
C        0.04350000      -2.02090000       0.22410000
C        0.48840000      -0.85910000       1.16570000
O       -0.81640000      -0.70350000       1.79880000
C       -1.11020000      -0.98970000       0.39910000
H        1.09410000       1.70090000      -0.63630000
H       -0.53280000       1.58750000      -1.31130000
H       -0.32450000       1.89210000       0.42560000
H       -0.02000000      -1.47240000      -1.94960000
H        2.64100000      -1.27050000      -0.43540000
H        2.28840000      -2.37620000      -1.77680000
H        3.27330000      -0.41930000      -2.53200000
H        0.00950000      -3.08270000       0.46830000
H        1.37750000      -0.75110000       1.78640000
H       -2.15100000      -1.04480000       0.07900000
