21
Properties=species:S:1:pos:R:3 gdb_77495=T pbc="F F F"
C       -0.01070000       1.50750000       0.05920000
C        0.01680000       0.00370000       0.02890000
C        0.60020000      -0.92920000      -1.07780000
C        0.04360000      -1.91810000      -0.00180000
C        0.06250000      -3.42180000      -0.01900000
C        0.66050000      -0.96280000       1.07860000
O        2.03950000      -0.94590000       1.33420000
C       -1.19400000      -0.98810000       0.03270000
O       -2.00940000      -1.10570000       1.17380000
H        1.00210000       1.91520000       0.14940000
H       -0.46160000       1.92350000      -0.84870000
H       -0.58610000       1.86840000       0.91970000
H        0.08940000      -0.92280000      -2.04630000
H        1.68200000      -0.91090000      -1.23740000
H        1.08770000      -3.79900000       0.06290000
H       -0.51040000      -3.82200000       0.82380000
H       -0.37160000      -3.81910000      -0.94300000
H        0.17550000      -0.98540000       2.05320000
H        2.52110000      -0.93850000       0.50110000
H       -1.79160000      -0.98270000      -0.88950000
H       -2.64780000      -0.38610000       1.16440000
