14
Properties=species:S:1:pos:R:3 gdb_127205=T pbc="F F F"
C       -0.56050000       1.34730000       0.02080000
N       -0.11230000      -0.04770000      -0.00290000
C        0.09060000      -0.67940000      -1.21870000
N       -0.10110000      -0.10470000      -2.32700000
O        0.51310000      -1.98460000      -1.15190000
N        0.72330000      -2.66220000       0.11130000
N        0.56710000      -2.03670000       1.14750000
C        0.18270000      -0.65830000       1.19390000
N        0.10850000      -0.04710000       2.30530000
H        0.28160000       2.01220000       0.23320000
H       -0.98190000       1.58130000      -0.95300000
H       -1.29860000       1.46100000       0.81510000
H        0.08780000      -0.74070000      -3.09810000
H        0.33990000      -0.69180000       3.05930000
