17
Properties=species:S:1:pos:R:3 gdb_24598=T pbc="F F F"
C       -0.02170000       1.48560000      -0.12800000
O        1.37330000       1.59040000       0.21140000
C        1.43870000       0.19770000       0.56960000
C        0.00940000      -0.06190000       0.01630000
C       -0.99010000      -0.72990000       0.87560000
C       -1.83120000      -1.78480000       0.68810000
C       -2.56150000      -1.95210000       1.91000000
C       -2.11050000      -0.98570000       2.74910000
O       -1.15550000      -0.23300000       2.13870000
H       -0.66430000       1.98550000       0.60730000
H       -0.23650000       1.87830000      -1.12810000
H        2.25980000      -0.32300000       0.06430000
H        1.52630000       0.05380000       1.65370000
H        0.02760000      -0.56550000      -0.95160000
H       -1.91960000      -2.37270000      -0.21240000
H       -3.31660000      -2.69090000       2.12790000
H       -2.34790000      -0.70630000       3.76220000
