25
Properties=species:S:1:pos:R:3 gdb_118425=T pbc="F F F"
C        0.37620000       1.49040000       0.05100000
C        0.16290000      -0.02630000       0.03230000
C        0.67580000      -0.67510000      -1.25930000
C        0.51350000      -2.21630000      -1.31670000
C       -0.94780000      -2.65650000      -1.49450000
C       -1.14890000      -4.16850000      -1.35290000
C        1.38450000      -2.72080000      -2.47350000
C        2.81330000      -3.10660000      -2.13330000
O        0.96020000      -2.78850000      -3.60520000
H        1.43840000       1.74290000      -0.04250000
H       -0.15170000       1.97450000      -0.77790000
H        0.00960000       1.93220000       0.98270000
H        0.67560000      -0.48000000       0.89090000
H       -0.90330000      -0.24270000       0.16460000
H        0.16440000      -0.24100000      -2.12790000
H        1.73720000      -0.41540000      -1.37510000
H        0.91360000      -2.63120000      -0.38060000
H       -1.57410000      -2.13750000      -0.76130000
H       -1.27770000      -2.33370000      -2.48740000
H       -0.58030000      -4.71550000      -2.11140000
H       -0.82790000      -4.52370000      -0.36670000
H       -2.20270000      -4.43740000      -1.47400000
H        2.80250000      -4.04120000      -1.55890000
H        3.39280000      -3.25320000      -3.04560000
H        3.29040000      -2.35300000      -1.49820000
