18
Properties=species:S:1:pos:R:3 gdb_65047=T pbc="F F F"
C        0.02860000       1.39290000       0.65550000
C        0.00620000       0.00260000       0.04960000
C        0.92340000      -0.31970000      -1.10300000
C        1.18890000      -0.91260000       0.26010000
C       -1.35860000      -0.64310000       0.04200000
C       -2.27010000      -0.53890000      -1.11760000
O       -1.56510000      -1.74850000      -0.83990000
C       -1.96070000      -0.81680000       1.35800000
N       -2.41700000      -0.92630000       2.41410000
H        1.04580000       1.79380000       0.65030000
H       -0.60770000       2.08460000       0.09150000
H       -0.32160000       1.38240000       1.69310000
H        0.55950000      -0.99370000      -1.86920000
H        1.56990000       0.47530000      -1.45820000
H        2.02050000      -0.53280000       0.84300000
H        0.99550000      -1.97220000       0.38510000
H       -3.34630000      -0.58180000      -0.96750000
H       -1.92320000       0.01370000      -1.98840000
