15
Properties=species:S:1:pos:R:3 gdb_133002=T pbc="F F F"
C       -0.14780000       1.40090000       0.03040000
N       -0.09040000      -0.04910000      -0.01840000
C        0.59080000      -0.59930000      -0.95510000
C        1.35500000       0.03470000      -2.03240000
C        2.02200000      -0.68860000      -2.94540000
O        2.05790000      -2.03900000      -2.96630000
C        1.36710000      -2.69480000      -1.99070000
C        0.67200000      -2.05640000      -1.03680000
F        0.02730000      -2.77150000      -0.12410000
H        0.84520000       1.85860000       0.15790000
H       -0.59520000       1.83650000      -0.87610000
H       -0.76300000       1.70540000       0.88080000
H        1.39200000       1.11310000      -2.10690000
H        2.60080000      -0.27190000      -3.76000000
H        1.44110000      -3.76970000      -2.07070000
