25
Properties=species:S:1:pos:R:3 gdb_62936=T pbc="F F F"
C       -0.36450000       1.61310000       0.37720000
C       -0.19000000       0.09910000       0.53750000
C       -1.40310000      -0.45210000       1.29560000
C        0.05690000      -0.70090000      -0.75930000
C        1.32630000      -0.30300000      -1.45600000
C        1.40840000      -1.19190000      -0.24840000
C        1.23580000      -0.41890000       1.07640000
C        2.29300000       0.64770000       1.38170000
C        1.16210000      -1.38390000       2.26520000
H        0.43270000       2.07510000      -0.20910000
H       -1.31160000       1.83220000      -0.12900000
H       -0.39030000       2.11270000       1.35270000
H       -2.32360000      -0.15590000       0.77910000
H       -1.40120000      -1.54310000       1.35290000
H       -1.45810000      -0.05700000       2.31560000
H       -0.71540000      -1.26470000      -1.27190000
H        1.50280000      -0.80310000      -2.40350000
H        1.68950000       0.72020000      -1.43340000
H        1.83030000      -2.18950000      -0.30960000
H        2.45030000       1.34230000       0.55360000
H        2.01410000       1.23910000       2.26160000
H        3.25680000       0.17260000       1.59740000
H        2.16080000      -1.78480000       2.47430000
H        0.81370000      -0.88230000       3.17430000
H        0.50540000      -2.23570000       2.07350000
