17
Properties=species:S:1:pos:R:3 gdb_29588=T pbc="F F F"
O       -0.09550000       1.31640000       0.11270000
C       -0.01250000      -0.03190000      -0.02130000
C       -0.10260000      -0.76800000      -1.17820000
N        0.04100000      -2.09430000      -0.81590000
C        0.21840000      -2.21080000       0.53540000
C        0.18960000      -0.93230000       1.06290000
N        0.31670000      -0.42370000       2.38180000
C       -0.23720000      -1.19630000       3.49940000
C        1.23340000      -1.08730000       3.31560000
H        0.01100000       1.48020000       1.06160000
H       -0.25250000      -0.46990000      -2.20120000
H        0.01780000      -2.86430000      -1.45860000
H        0.34780000      -3.17450000       1.00040000
H       -0.73710000      -0.61350000       4.26830000
H       -0.71110000      -2.14490000       3.26100000
H        1.76710000      -1.96120000       2.95140000
H        1.81620000      -0.42420000       3.94930000
