15
Properties=species:S:1:pos:R:3 gdb_24243=T pbc="F F F"
C        0.00790000       1.48790000       0.10120000
C        1.30450000       0.73580000       0.04560000
O        1.98040000       0.40400000       1.27140000
C        1.11290000      -0.43060000       1.87460000
C       -0.02200000      -0.77680000       1.22660000
C       -0.69610000      -1.65920000       2.13580000
C        0.10480000      -1.74500000       3.23600000
O        1.24850000      -0.96320000       3.08650000
C       -0.02560000      -0.02920000      -0.05680000
H       -0.32020000       1.90700000       1.04580000
H       -0.21480000       2.09130000      -0.77280000
H        2.00740000       0.87350000      -0.76480000
H       -1.63900000      -2.16810000       2.00870000
H        0.04350000      -2.27990000       4.16720000
H       -0.36680000      -0.46910000      -0.98690000
