17
Properties=species:S:1:pos:R:3 gdb_33009=T pbc="F F F"
C        0.02270000       1.51950000      -0.06420000
C       -0.00700000       0.00530000       0.01740000
O        0.65940000      -0.49900000      -1.15250000
C        0.75030000      -1.82950000      -1.28960000
N        0.24180000      -2.64030000      -0.37490000
C        0.38520000      -3.95370000      -0.60530000
C        1.02600000      -4.44110000      -1.73110000
N        1.54060000      -3.61390000      -2.65680000
C        1.40510000      -2.31780000      -2.44010000
H        1.05170000       1.88860000      -0.09040000
H       -0.49260000       1.87210000      -0.96190000
H       -0.47570000       1.94670000       0.81100000
H        0.50430000      -0.36650000       0.91180000
H       -1.03070000      -0.38310000       0.04450000
H       -0.02930000      -4.62710000       0.14060000
H        1.13370000      -5.50740000      -1.90270000
H        1.81020000      -1.62240000      -3.16980000
