14
Properties=species:S:1:pos:R:3 gdb_50314=T pbc="F F F"
O       -0.17010000       0.01970000       0.19150000
C       -0.02660000       1.20960000       0.13890000
N        1.17970000       1.88660000      -0.01920000
C        1.21760000       3.35510000      -0.07450000
C        2.69690000       3.67860000      -0.00090000
O        3.30990000       3.16600000       1.17510000
C        3.45380000       2.42280000      -0.04930000
C        2.45860000       1.28720000      -0.13080000
O        2.69810000       0.12200000      -0.27850000
H       -0.86790000       1.92900000       0.21390000
H        0.78780000       3.72450000      -1.01310000
H        0.66730000       3.79730000       0.76210000
H        3.07450000       4.62300000      -0.37860000
H        4.45810000       2.29190000      -0.43440000
