21
Properties=species:S:1:pos:R:3 gdb_40671=T pbc="F F F"
C       -0.37450000       0.97670000      -0.40730000
C        1.00010000       1.04640000       0.20640000
C        0.34240000      -0.29330000      -0.03050000
C       -0.10470000      -1.10850000       1.14160000
O       -0.94420000      -0.45400000       2.11000000
C       -1.49210000      -1.53230000       1.36730000
C       -2.69930000      -1.45020000       0.42900000
C       -2.98450000      -2.94380000       0.77490000
C       -2.00260000      -2.83790000       1.98140000
H       -1.20700000       1.27480000       0.21870000
H       -0.48560000       1.20800000      -1.46080000
H        1.83890000       1.32560000      -0.42140000
H        1.06640000       1.38940000       1.23310000
H        0.74910000      -0.89150000      -0.84220000
H        0.67830000      -1.72290000       1.59380000
H       -3.46600000      -0.77770000       0.82540000
H       -2.51000000      -1.19420000      -0.61530000
H       -4.01840000      -3.20330000       1.00770000
H       -2.61870000      -3.62350000       0.00200000
H       -1.28130000      -3.64560000       2.12830000
H       -2.52310000      -2.65330000       2.92610000
