16
Properties=species:S:1:pos:R:3 gdb_31884=T pbc="F F F"
C        0.31760000       1.54680000      -0.06180000
C       -0.02400000       0.05390000       0.08850000
C        0.55590000      -0.56550000       1.30970000
C        0.04780000      -1.14260000       2.43180000
N        1.07580000      -1.54750000       3.26070000
C        2.15830000      -1.20630000       2.62320000
O        1.91790000      -0.60060000       1.42230000
C        3.50150000      -1.38400000       3.01300000
C        4.64850000      -1.53470000       3.34240000
H        1.40000000       1.69480000      -0.10440000
H       -0.11880000       1.94800000      -0.98090000
H       -0.06990000       2.12370000       0.78300000
H       -1.10910000      -0.08470000       0.12990000
H        0.32870000      -0.49090000      -0.79660000
H       -0.98690000      -1.29450000       2.69630000
H        5.65950000      -1.67080000       3.63850000
