20
Properties=species:S:1:pos:R:3 gdb_77093=T pbc="F F F"
C       -0.60610000       1.06640000      -0.03670000
C       -0.00450000      -0.32110000       0.10290000
C        1.31870000      -0.63050000      -0.68460000
C        1.84520000      -1.41090000       0.56450000
C        0.74900000      -0.72370000       1.38520000
C        0.99000000       0.15810000       2.57800000
C        0.19310000      -1.12120000       2.71480000
C        1.21210000      -1.33910000      -1.94690000
N        1.10870000      -1.91740000      -2.94340000
H        0.13340000       1.84450000       0.17970000
H       -0.98240000       1.22740000      -1.05230000
H       -1.44760000       1.20150000       0.65170000
H       -0.75190000      -1.08360000      -0.14330000
H        1.89150000       0.28930000      -0.83500000
H        1.68890000      -2.48820000       0.46200000
H        2.88500000      -1.22480000       0.84180000
H        1.99080000       0.18590000       2.99740000
H        0.45430000       1.09940000       2.64400000
H       -0.87880000      -1.03740000       2.86640000
H        0.65030000      -1.95950000       3.23100000
