19
Properties=species:S:1:pos:R:3 gdb_105853=T pbc="F F F"
C        0.03730000       1.36290000       0.18800000
O        0.02340000      -0.01940000      -0.16130000
C       -1.23060000      -0.56320000      -0.14020000
C       -1.88530000      -1.11100000       1.13820000
C       -3.25280000      -0.74520000       1.66900000
C       -1.62230000      -2.02670000      -0.03380000
N       -2.58800000      -1.83760000      -1.12820000
C       -2.27680000      -0.44990000      -1.22290000
N       -2.66960000       0.51040000      -1.94150000
H        1.07540000       1.69280000       0.11380000
H       -0.58570000       1.94770000      -0.49770000
H       -0.31770000       1.51390000       1.21700000
H       -1.11810000      -1.22390000       1.90390000
H       -3.98350000      -0.62160000       0.86510000
H       -3.62740000      -1.51760000       2.34990000
H       -3.21650000       0.19850000       2.22230000
H       -0.98560000      -2.90180000      -0.01090000
H       -3.55430000      -2.12380000      -1.00200000
H       -3.40840000       0.21910000      -2.58540000
