20
Properties=species:S:1:pos:R:3 gdb_88531=T pbc="F F F"
C        1.10410000       1.21340000      -0.61620000
C        0.19240000       0.15230000      -0.05090000
N        0.79180000      -1.11390000       0.39110000
C        0.13960000      -0.24040000       1.38820000
C        1.00540000       0.35150000       2.44700000
C        0.86660000       0.20870000       3.98970000
C        1.91500000       1.29590000       3.67360000
C        2.54760000       0.37180000       2.60810000
O        1.00600000       1.83710000       2.63730000
H        2.09040000       1.17460000      -0.15360000
H        1.22900000       1.06830000      -1.69480000
H        0.68580000       2.21010000      -0.44810000
H       -0.76920000       0.08000000      -0.55960000
H        0.18930000      -1.90130000       0.16800000
H       -0.84000000      -0.54530000       1.75290000
H       -0.07360000       0.57760000       4.40270000
H        1.20490000      -0.72280000       4.45160000
H        2.39190000       2.01200000       4.34180000
H        3.03390000      -0.54840000       2.93990000
H        3.09850000       0.88170000       1.81870000
