25
Properties=species:S:1:pos:R:3 gdb_53501=T pbc="F F F"
C        0.05890000       1.54110000      -0.03940000
C        0.03760000       0.08470000      -0.03770000
C        0.03030000      -1.12010000      -0.03840000
C        0.00540000      -2.57960000      -0.02370000
C       -1.42450000      -3.18530000       0.01250000
C       -2.21560000      -2.72100000      -1.21950000
C       -1.38200000      -4.72950000       0.14380000
C       -0.65600000      -5.19870000       1.41620000
C       -2.78850000      -5.35010000       0.11050000
H        0.89610000       1.92920000       0.55170000
H        0.16030000       1.93920000      -1.05540000
H       -0.86270000       1.95440000       0.38550000
H        0.52870000      -2.96540000      -0.91070000
H        0.58020000      -2.92710000       0.84100000
H       -1.92170000      -2.78760000       0.90890000
H       -1.82030000      -3.18120000      -2.13390000
H       -3.27520000      -2.97620000      -1.14710000
H       -2.14040000      -1.63650000      -1.33290000
H       -0.82650000      -5.11630000      -0.72460000
H        0.40020000      -4.91840000       1.43180000
H       -1.12760000      -4.77880000       2.31300000
H       -0.70080000      -6.28930000       1.50200000
H       -3.30090000      -5.17230000      -0.83770000
H       -2.73210000      -6.43380000       0.25580000
H       -3.41560000      -4.94290000       0.91320000
