25
Properties=species:S:1:pos:R:3 gdb_70733=T pbc="F F F"
C       -0.06230000       1.51300000       0.07700000
C       -0.01990000      -0.00300000      -0.00590000
C       -0.86030000      -0.76770000       0.99320000
C        0.64550000      -0.74250000       1.13390000
C        1.49480000      -1.98010000       0.90200000
C        2.75490000      -1.71020000       0.05850000
C        2.49990000      -1.62920000      -1.45550000
C        1.58810000      -0.49400000      -1.94970000
C        0.14110000      -0.55020000      -1.42080000
H        0.83490000       1.96880000      -0.35770000
H       -0.92970000       1.91230000      -0.46270000
H       -0.13190000       1.85240000       1.11550000
H       -1.46110000      -0.20640000       1.70200000
H       -1.31600000      -1.69900000       0.66930000
H        1.02950000      -0.10090000       1.92490000
H        1.78660000      -2.38950000       1.87710000
H        0.90240000      -2.76660000       0.41760000
H        3.23310000      -0.78420000       0.40650000
H        3.48250000      -2.51220000       0.23540000
H        3.46740000      -1.54010000      -1.96600000
H        2.07410000      -2.58750000      -1.78700000
H        2.03620000       0.47530000      -1.69460000
H        1.56630000      -0.53400000      -3.04590000
H       -0.21630000      -1.58580000      -1.47220000
H       -0.51420000       0.02300000      -2.08960000
