16
Properties=species:S:1:pos:R:3 gdb_15115=T pbc="F F F"
C        0.02400000      -1.16560000       0.21770000
C        0.04700000       0.03090000       0.12210000
C        0.03860000       1.48270000       0.00530000
O        1.36460000       1.97370000      -0.02860000
C        1.41470000       3.37680000      -0.17980000
C        2.85690000       3.79960000      -0.20290000
C        3.25340000       5.16220000       0.16920000
O        3.47420000       4.06690000       1.05600000
H        0.01230000      -2.22400000       0.30390000
H       -0.50510000       1.77810000      -0.90920000
H       -0.51320000       1.92080000       0.85470000
H        0.92170000       3.68030000      -1.12080000
H        0.89860000       3.88600000       0.65030000
H        3.48160000       3.24350000      -0.90210000
H        4.14580000       5.60180000      -0.27350000
H        2.49560000       5.87730000       0.48860000
