20
Properties=species:S:1:pos:R:3 gdb_106395=T pbc="F F F"
O       -0.01110000       1.42500000      -0.00010000
C       -0.00210000       0.00450000      -0.03730000
C       -1.42850000      -0.47750000      -0.05840000
C       -2.50170000      -0.02420000       1.00460000
C       -3.46090000      -0.58730000      -0.08460000
C       -2.46240000       0.00640000      -1.11290000
N       -3.17010000      -2.05460000       0.06320000
C       -2.44800000      -2.68810000      -1.05420000
C       -1.68160000      -1.99370000       0.01270000
H        0.90010000       1.73140000       0.01260000
H        0.52550000      -0.36820000      -0.93090000
H        0.51410000      -0.41280000       0.84360000
H       -2.50710000      -0.53850000       1.96890000
H       -2.54590000       1.05840000       1.12830000
H       -4.52900000      -0.37510000      -0.10630000
H       -2.51100000       1.09470000      -1.13370000
H       -2.41810000      -0.37170000      -2.13510000
H       -2.49240000      -3.77370000      -1.01950000
H       -2.50890000      -2.28250000      -2.05730000
H       -1.13570000      -2.56750000       0.75890000
