20
Properties=species:S:1:pos:R:3 gdb_117197=T pbc="F F F"
C       -0.09510000       1.33320000      -0.13640000
C       -0.40650000      -0.16470000      -0.17400000
N        0.17230000      -0.83230000      -1.32720000
C        1.23320000      -1.67370000      -1.23860000
O        1.78930000      -1.99480000      -0.20110000
C        1.69270000      -2.23380000      -2.57790000
C        3.17970000      -2.44520000      -2.70660000
C        0.73330000      -3.05630000      -3.33840000
O        1.00740000      -1.70770000      -3.72940000
H        0.98400000       1.50250000      -0.08070000
H       -0.47470000       1.84090000      -1.02970000
H       -0.56280000       1.79780000       0.73740000
H        0.00540000      -0.66500000       0.70530000
H       -1.49170000      -0.32510000      -0.17350000
H       -0.11890000      -0.58060000      -2.26070000
H        3.53420000      -3.04880000      -1.86860000
H        3.41920000      -2.94350000      -3.64870000
H        3.70670000      -1.48640000      -2.67560000
H        1.11180000      -3.82140000      -4.01440000
H       -0.26370000      -3.23250000      -2.93880000
