16
Properties=species:S:1:pos:R:3 gdb_96697=T pbc="F F F"
C        0.00500000       1.80680000       0.45990000
N        0.23620000       0.39920000       0.70490000
C       -0.63030000      -0.45690000       0.38920000
O       -0.37410000      -1.78130000       0.74620000
C       -0.18980000      -2.68350000      -0.27000000
C       -0.00250000      -4.06470000       0.29960000
O       -0.17710000      -2.37650000      -1.42850000
C       -1.91270000      -0.24290000      -0.21170000
C       -2.99680000      -0.03860000      -0.69120000
H        0.80690000       2.18020000      -0.18610000
H       -0.96320000       2.03840000       0.00010000
H        0.08970000       2.34380000       1.41100000
H       -0.89760000      -4.36220000       0.85340000
H        0.18590000      -4.76750000      -0.51070000
H        0.83290000      -4.06750000       1.00500000
H       -3.95100000       0.13100000      -1.12720000
