16
Properties=species:S:1:pos:R:3 gdb_19461=T pbc="F F F"
N       -0.09170000      -1.14100000      -0.12590000
C       -0.03360000       0.01140000      -0.05930000
C       -0.01210000       1.46530000       0.02670000
C       -0.11560000       2.07400000       1.46250000
C        1.39850000       1.75490000       1.50990000
N        1.40040000       2.04660000       0.01670000
C        1.05100000       3.50030000       0.04060000
C       -0.09110000       3.57130000       1.11600000
H       -0.66870000       1.87700000      -0.74590000
H       -0.83570000       1.71830000       2.19940000
H        2.05350000       2.39870000       2.10230000
H        1.63370000       0.70470000       1.68680000
H        1.93890000       4.07340000       0.31480000
H        0.72910000       3.81810000      -0.95360000
H       -1.04100000       3.93030000       0.71120000
H        0.16820000       4.18900000       1.97950000
