21
Properties=species:S:1:pos:R:3 gdb_120070=T pbc="F F F"
C        0.05880000       1.62350000      -0.19670000
C        0.00610000       0.09920000      -0.06610000
C        0.72670000      -0.41350000       1.18170000
N        0.71100000      -1.87580000       1.23710000
C       -0.51250000      -2.50200000       1.82790000
C        0.30420000      -3.73360000       2.33120000
N       -0.17270000      -3.67990000       3.74990000
C       -0.11530000      -2.24100000       3.33550000
C        1.20030000      -2.47940000       2.51070000
H        1.09310000       1.98010000      -0.25640000
H       -0.46180000       1.96300000      -1.09730000
H       -0.41030000       2.11500000       0.66300000
H       -1.04050000      -0.23130000      -0.04090000
H        0.45660000      -0.37530000      -0.94510000
H        1.77820000      -0.09820000       1.14960000
H        0.28540000       0.05380000       2.08190000
H       -1.49760000      -2.47910000       1.35680000
H        0.54030000      -4.65220000       1.79520000
H       -1.14650000      -3.99040000       3.80480000
H       -0.38550000      -1.42820000       4.00970000
H        2.23490000      -2.42880000       2.85110000
