19
Properties=species:S:1:pos:R:3 gdb_110775=T pbc="F F F"
C        0.03460000       1.40370000      -0.28460000
C       -0.01880000      -0.03070000       0.25610000
C       -1.40000000      -0.63760000       0.15070000
C       -1.94220000      -1.29220000      -1.11520000
N       -1.02660000      -1.79870000      -2.09530000
C       -0.13900000      -2.72090000      -1.54730000
O        0.86770000      -3.15480000      -2.05950000
N       -0.64240000      -3.04040000      -0.28840000
C       -1.67820000      -2.13440000       0.11420000
H        1.03740000       1.82840000      -0.17880000
H       -0.23290000       1.43510000      -1.34610000
H       -0.66340000       2.05640000       0.25090000
H        0.71050000      -0.64770000      -0.27770000
H        0.29260000      -0.03830000       1.30860000
H       -2.17130000      -0.08980000       0.68980000
H       -2.94690000      -1.07460000      -1.45970000
H       -0.70020000      -1.24930000      -2.87320000
H       -0.00480000      -3.46150000       0.36730000
H       -2.48230000      -2.55470000       0.70780000
