15
Properties=species:S:1:pos:R:3 gdb_82693=T pbc="F F F"
O        0.13530000       1.41290000       0.08420000
C        0.01590000       0.03670000       0.02180000
C        0.22390000      -0.76830000       1.33270000
N       -0.75780000      -0.05740000       2.23200000
C       -1.80170000      -0.76930000       1.45930000
C       -0.88320000      -1.78610000       0.86490000
C       -1.38180000      -0.62750000      -0.01640000
C       -2.31730000      -0.67640000      -1.08640000
N       -3.06960000      -0.71470000      -1.96560000
H       -0.24990000       1.66490000       0.93800000
H        0.63440000      -0.33810000      -0.79620000
H        1.21200000      -0.98060000       1.73150000
H       -0.71150000      -0.48110000       3.15710000
H       -2.84230000      -0.82170000       1.75020000
H       -0.93380000      -2.85100000       0.68870000
