16
Properties=species:S:1:pos:R:3 gdb_25997=T pbc="F F F"
C       -0.10990000       1.39480000      -2.35980000
C        0.04350000      -0.08780000      -2.58320000
N        0.37420000      -0.69980000      -3.64110000
O       -0.24110000      -0.73170000      -1.42080000
C       -0.18260000      -2.09450000      -1.27380000
C       -0.18550000      -2.66490000      -0.03670000
O       -0.17620000      -4.01830000      -0.15830000
C       -0.16680000      -4.29920000      -1.48620000
C       -0.17140000      -3.16330000      -2.23130000
H       -1.12990000       1.62330000      -2.03620000
H        0.56430000       1.72820000      -1.56500000
H        0.10940000       1.95030000      -3.27260000
H        0.54480000      -0.03520000      -4.39200000
H       -0.20170000      -2.26120000       0.96040000
H       -0.15220000      -5.34540000      -1.74300000
H       -0.14960000      -3.07210000      -3.30060000
