17
Properties=species:S:1:pos:R:3 gdb_125888=T pbc="F F F"
C       -0.20490000       1.52530000      -0.10250000
C       -0.02220000       0.02850000       0.00400000
C        1.31370000      -0.61220000      -0.28140000
C        0.77040000      -0.59930000       1.12550000
N        1.40190000       0.23320000       2.10820000
C        2.70430000       0.43780000       2.38410000
N        2.80870000       1.23590000       3.42230000
N        1.52890000       1.51660000       3.79250000
N        0.67950000       0.92540000       3.02240000
H        0.70750000       2.06520000       0.16540000
H       -0.46750000       1.80230000      -1.12830000
H       -1.00090000       1.87150000       0.56290000
H       -0.89380000      -0.55330000      -0.28190000
H        1.35960000      -1.56720000      -0.79150000
H        2.13900000       0.05620000      -0.50300000
H        0.40460000      -1.53130000       1.54230000
H        3.51410000       0.00250000       1.82280000
