21
Properties=species:S:1:pos:R:3 gdb_102814=T pbc="F F F"
C       -0.80790000       0.23530000       0.58250000
C       -0.16590000      -1.06510000       0.08970000
C        0.44700000      -0.97440000      -1.32040000
C        1.23460000      -2.25480000      -1.68290000
C        2.49330000      -2.40180000      -0.86160000
O        2.77400000      -3.35300000      -0.17890000
C       -0.61010000      -0.72230000      -2.37740000
C       -0.86100000       0.60220000      -2.95920000
O       -0.13010000      -0.39060000      -3.68180000
H       -0.08040000       1.05450000       0.59830000
H       -1.64120000       0.54410000      -0.05590000
H       -1.19520000       0.11690000       1.59880000
H        0.61510000      -1.37460000       0.79420000
H       -0.90970000      -1.87340000       0.10050000
H        1.14790000      -0.12770000      -1.35090000
H        0.62200000      -3.15320000      -1.55730000
H        1.53550000      -2.18100000      -2.73690000
H        3.18250000      -1.52580000      -0.93090000
H       -1.43290000      -1.44170000      -2.38190000
H       -1.84370000       0.84480000      -3.36100000
H       -0.27630000       1.45530000      -2.61720000
