21
Properties=species:S:1:pos:R:3 gdb_92595=T pbc="F F F"
C       -0.83480000       1.28260000      -0.00280000
C       -0.04060000      -0.01300000      -0.08610000
C        1.22220000      -0.04230000      -0.99490000
C        2.03860000      -0.71400000       0.14470000
C        3.17020000       0.12670000       0.72620000
O        2.51290000       1.19800000       1.40490000
C        1.39210000       0.62050000       2.06000000
C        0.84380000      -0.47470000       1.11900000
O        0.40510000      -1.62390000       1.81180000
H       -0.18320000       2.13470000       0.21760000
H       -1.33620000       1.49000000      -0.95460000
H       -1.60920000       1.23890000       0.77250000
H       -0.70400000      -0.84770000      -0.33540000
H        1.13190000      -0.61300000      -1.92130000
H        1.59110000       0.95940000      -1.23450000
H        2.29040000      -1.76250000      -0.01540000
H        3.77660000      -0.46330000       1.43250000
H        3.83350000       0.56770000      -0.02340000
H        1.68990000       0.12640000       2.99890000
H        0.69020000       1.42670000       2.29050000
H       -0.39050000      -1.39500000       2.30490000
