19
Properties=species:S:1:pos:R:3 gdb_62579=T pbc="F F F"
C        0.00390000       1.49730000       0.03450000
C       -0.03470000      -0.01460000      -0.01360000
O       -1.24830000      -0.41820000      -0.56080000
C        1.29420000      -0.69820000      -0.28220000
C        0.66790000      -0.72710000       1.12830000
C        0.51490000      -2.25380000       1.25590000
C        1.89540000      -2.78650000       0.78650000
C        1.30940000      -2.21710000      -0.53340000
O       -0.00980000      -2.66150000      -0.05690000
H        0.94170000       1.86530000       0.45860000
H       -0.10780000       1.90300000      -0.97560000
H       -0.82640000       1.86990000       0.64210000
H       -1.21990000      -1.38720000      -0.56800000
H        2.17790000      -0.12230000      -0.53590000
H        1.06370000      -0.17380000       1.97330000
H       -0.03870000      -2.66990000       2.09660000
H        2.79900000      -2.33020000       1.19710000
H        1.94750000      -3.87670000       0.78720000
H        1.56780000      -2.59570000      -1.52160000
