16
Properties=species:S:1:pos:R:3 gdb_45292=T pbc="F F F"
O       -0.15010000       0.06920000       0.01370000
C        0.00110000       1.24570000      -0.01080000
O       -0.98740000       2.22680000       0.07410000
C       -0.06500000       3.32060000      -0.19710000
C        0.39720000       4.05350000       1.08130000
C        1.55700000       3.03680000       1.21760000
C        2.85490000       3.31520000       0.39730000
N        2.44020000       2.28760000      -0.59890000
C        1.10600000       2.27910000      -0.08400000
H       -0.35140000       3.86240000      -1.09830000
H        0.71200000       5.08840000       0.92300000
H       -0.34380000       4.02580000       1.88290000
H        1.69980000       2.50950000       2.15870000
H        2.90360000       4.34130000       0.00950000
H        3.80140000       3.07910000       0.89190000
H        2.56770000       2.49370000      -1.58390000
