19
Properties=species:S:1:pos:R:3 gdb_90497=T pbc="F F F"
C        0.01170000       1.55330000       0.00270000
C        0.08050000       0.05350000      -0.00430000
C        0.59430000      -0.93080000      -1.03960000
C        1.25750000      -1.78390000       0.04800000
C        0.71470000      -0.78220000       1.12380000
O        1.72240000      -0.01420000       1.74820000
C       -0.90550000      -0.79110000      -0.80910000
C       -1.78230000      -1.85170000      -0.26130000
O       -2.92800000      -2.01650000      -0.61050000
H        0.96630000       1.97530000       0.32700000
H       -0.21900000       1.93840000      -0.99540000
H       -0.76540000       1.91120000       0.68760000
H        0.99610000      -0.74000000      -2.02810000
H        0.97170000      -2.83740000       0.11790000
H        2.34640000      -1.70800000       0.01120000
H        0.02370000      -1.19230000       1.87310000
H        2.17170000      -0.57370000       2.38960000
H       -1.40970000      -0.21450000      -1.58020000
H       -1.33200000      -2.51420000       0.50850000
