17
Properties=species:S:1:pos:R:3 gdb_31796=T pbc="F F F"
C       -0.05230000       1.50630000      -0.00020000
C       -0.00800000       0.00300000      -0.00240000
C        0.22500000      -0.73310000      -1.16860000
N        0.26690000      -2.06310000      -1.18510000
C        0.07370000      -2.68540000      -0.01940000
C        0.12380000      -4.19250000      -0.05270000
O       -0.09760000      -4.70030000       1.24910000
C       -0.15960000      -1.96010000       1.15050000
N       -0.20070000      -0.62760000       1.16220000
H        0.11620000       1.91450000      -0.99990000
H       -1.02250000       1.86040000       0.36250000
H        0.70870000       1.91090000       0.67480000
H        0.38240000      -0.22680000      -2.11840000
H       -0.63440000      -4.54930000      -0.76750000
H        1.10350000      -4.49850000      -0.45230000
H       -0.06170000      -5.65950000       1.20870000
H       -0.31540000      -2.47390000       2.09220000
