16
Properties=species:S:1:pos:R:3 gdb_128171=T pbc="F F F"
C       -0.60460000       0.82450000       0.17190000
N        0.53390000      -0.07580000       0.00860000
C        1.00240000      -0.75930000       1.13900000
C        0.87810000      -2.18600000       1.42680000
O        0.23900000      -2.83490000       0.43310000
C        0.08030000      -4.24110000       0.64670000
O        1.29640000      -2.71710000       2.43390000
N        2.10530000       0.62120000       2.84320000
N        1.60180000      -0.06080000       2.09330000
H       -0.41030000       1.67830000       0.84060000
H       -0.88850000       1.21660000      -0.80890000
H       -1.45170000       0.26130000       0.57330000
H        1.26810000       0.32090000      -0.56400000
H       -0.43900000      -4.61600000      -0.23550000
H        1.05200000      -4.72980000       0.75530000
H       -0.50840000      -4.43350000       1.54760000
