23
Properties=species:S:1:pos:R:3 gdb_104453=T pbc="F F F"
C       -0.16410000       1.57300000      -0.07110000
C        0.01590000       0.05210000      -0.02160000
C        0.77030000      -0.47090000       1.20750000
O        0.04440000      -0.04570000       2.36410000
C        0.85310000      -2.01400000       1.18260000
C        1.66820000      -2.54210000       2.37250000
C        3.00580000      -1.80760000       2.46980000
O        2.82440000      -0.39470000       2.49580000
C        2.20230000       0.08020000       1.30800000
H        0.78500000       2.09730000      -0.22290000
H       -0.82480000       1.85420000      -0.89670000
H       -0.60520000       1.93280000       0.86140000
H       -0.97070000      -0.42730000      -0.02090000
H        0.52980000      -0.30030000      -0.92460000
H        0.67960000      -0.02860000       3.09080000
H       -0.16120000      -2.42570000       1.19680000
H        1.32150000      -2.33170000       0.24150000
H        1.10450000      -2.38650000       3.29960000
H        1.84230000      -3.61990000       2.28040000
H        3.54020000      -2.06190000       3.38960000
H        3.65070000      -2.07700000       1.61600000
H        2.79240000      -0.20600000       0.42220000
H        2.19450000       1.16960000       1.38820000
