21
Properties=species:S:1:pos:R:3 gdb_119806=T pbc="F F F"
C       -0.02420000       1.58280000      -0.08500000
C       -0.00460000       0.05390000      -0.15150000
C       -1.38360000      -0.56940000       0.14080000
C       -1.39740000      -2.06820000       0.09370000
C       -1.65220000      -2.89310000       1.11610000
C       -1.59630000      -4.34780000       0.74270000
C       -1.26900000      -4.31070000      -0.75930000
O       -1.15010000      -5.26460000      -1.48140000
C       -1.12170000      -2.83910000      -1.17700000
H        0.96450000       2.00270000      -0.29350000
H       -0.72530000       2.00220000      -0.81520000
H       -0.33260000       1.93220000       0.90660000
H        0.33950000      -0.26410000      -1.14330000
H        0.72360000      -0.34150000       0.56730000
H       -1.72800000      -0.23590000       1.12740000
H       -2.10490000      -0.17460000      -0.59040000
H       -1.88510000      -2.55790000       2.12140000
H       -0.82320000      -4.91660000       1.27690000
H       -2.53700000      -4.88940000       0.90800000
H       -1.82280000      -2.60560000      -1.98970000
H       -0.11810000      -2.67200000      -1.58930000
