16
Properties=species:S:1:pos:R:3 gdb_34274=T pbc="F F F"
N        0.10000000      -1.06870000       0.23090000
C        0.02560000       0.07570000       0.07420000
C       -0.09670000       1.49910000      -0.09700000
C       -1.37560000       2.20840000       0.41760000
C       -1.05910000       3.62080000      -0.04790000
C       -0.05730000       3.59540000      -0.94830000
C        1.36170000       3.79920000      -0.38900000
C        1.31990000       2.23050000      -0.32830000
C        0.27420000       2.15610000      -1.39010000
H       -2.26620000       1.71170000       0.00970000
H       -1.47680000       2.20660000       1.50830000
H       -1.20030000       4.45540000       0.63260000
H        2.13950000       4.09020000      -1.10390000
H        1.45310000       4.38030000       0.53160000
H        2.19800000       1.59640000      -0.23890000
H        0.29200000       1.72730000      -2.38280000
