18
Properties=species:S:1:pos:R:3 gdb_39068=T pbc="F F F"
C       -0.11010000       1.50980000      -0.21490000
O        1.16110000       1.69290000       0.46050000
C        1.40370000       0.25410000       0.49250000
C        1.78040000      -0.33240000       1.81190000
C        1.02440000      -1.25590000       2.40540000
C       -0.31440000      -1.74560000       1.90100000
C       -0.92100000      -0.90300000       0.78620000
N       -0.59620000      -1.11630000      -0.64630000
C       -0.02850000       0.01490000       0.05180000
H       -0.91970000       2.06660000       0.26930000
H       -0.05470000       1.78640000      -1.27630000
H        2.15430000      -0.00550000      -0.27250000
H        2.72710000      -0.02530000       2.24800000
H        1.36850000      -1.71230000       3.33090000
H       -0.23270000      -2.79800000       1.58890000
H       -1.01320000      -1.76150000       2.74670000
H       -1.96020000      -0.61840000       0.93120000
H        0.10060000      -1.85160000      -0.75910000
