16
Properties=species:S:1:pos:R:3 gdb_124755=T pbc="F F F"
C        0.14150000       1.31980000       0.98760000
C       -0.16870000       0.44530000      -0.22260000
O        0.83580000      -0.56840000      -0.42730000
C       -1.52030000      -0.20080000      -0.15140000
C       -1.98520000      -1.27980000      -0.88920000
N       -1.35790000      -1.99260000      -1.85890000
O       -3.22450000      -1.55640000      -0.55690000
N       -3.57780000      -0.52740000       0.50760000
N       -2.55590000       0.16900000       0.65170000
H        1.14040000       1.75030000       0.88430000
H       -0.58980000       2.12670000       1.07930000
H        0.10000000       0.73270000       1.91170000
H       -0.08900000       1.05480000      -1.13220000
H        0.88180000      -1.08590000       0.38600000
H       -0.34960000      -1.92080000      -1.83040000
H       -1.74350000      -2.89540000      -2.08630000
