16
Properties=species:S:1:pos:R:3 gdb_69640=T pbc="F F F"
C        0.03390000       1.52590000      -0.08460000
C        0.09450000       0.03590000       0.01370000
N       -0.87870000      -0.79640000       0.75600000
C        0.56690000      -0.87960000       1.07650000
C        1.23760000      -1.81510000       0.00710000
O        0.26160000      -2.21950000      -0.94990000
C        0.75160000      -0.90760000      -1.06740000
C        2.53270000      -2.51750000       0.10360000
O        2.96900000      -3.27730000      -0.72400000
H        0.98690000       1.93630000      -0.43640000
H       -0.74640000       1.84550000      -0.78490000
H       -0.18210000       1.97400000       0.89090000
H       -1.29700000      -0.19000000       1.46310000
H        0.96220000      -0.66510000       2.06100000
H        1.24040000      -0.61550000      -1.99060000
H        3.10330000      -2.26460000       1.02620000
