21
Properties=species:S:1:pos:R:3 gdb_107796=T pbc="F F F"
C       -0.09830000       1.52690000      -0.01270000
C       -0.04600000      -0.00670000      -0.01550000
C        0.73510000      -0.57630000      -1.16480000
O        0.22270000      -0.18730000      -2.48510000
C        0.73810000      -1.42900000      -2.95870000
C        2.11280000      -1.65990000      -2.30570000
C        0.81560000      -2.08450000      -1.62770000
C        2.29220000      -0.47510000      -1.35430000
C        2.91410000       0.81590000      -1.86730000
H        0.89350000       1.96420000       0.13440000
H       -0.49280000       1.89840000      -0.96210000
H       -0.74540000       1.88780000       0.79200000
H        0.39390000      -0.37830000       0.91840000
H       -1.06540000      -0.40790000      -0.06530000
H        0.44270000      -1.78500000      -3.93670000
H        2.87170000      -2.29150000      -2.75080000
H        0.46110000      -3.02100000      -1.22050000
H        2.77740000      -0.82190000      -0.43500000
H        2.32300000       1.21720000      -2.69390000
H        2.97550000       1.57710000      -1.08250000
H        3.93270000       0.63440000      -2.22840000
