12
Properties=species:S:1:pos:R:3 gdb_130380=T pbc="F F F"
N        0.09230000       1.36840000      -0.00990000
C        0.10300000       0.03340000       0.09630000
N        1.16510000      -0.65660000      -0.15460000
C        1.04230000      -2.00680000      -0.15500000
N        0.00950000      -2.72510000      -0.45580000
O        0.46770000      -4.06770000      -0.30570000
C        1.77220000      -4.05530000       0.05610000
O        2.47000000      -4.99340000       0.25720000
O        2.15150000      -2.73100000       0.15210000
H        0.93010000       1.85030000      -0.29590000
H       -0.71240000       1.90590000       0.25710000
H       -0.84270000      -0.41730000       0.40940000
