23
Properties=species:S:1:pos:R:3 gdb_118158=T pbc="F F F"
C       -0.62220000       1.18720000      -0.70560000
O       -0.80510000      -0.20690000      -0.65340000
C       -0.93630000      -0.69700000       0.66150000
C       -1.10960000      -2.21770000       0.62730000
O       -1.06320000      -2.72190000       1.96120000
C       -2.36820000      -2.67550000      -0.09460000
C       -2.46790000      -2.56110000      -1.64330000
C       -3.16080000      -3.94990000      -1.66500000
C       -2.60790000      -4.20490000      -0.23620000
H       -0.52090000       1.46640000      -1.75720000
H       -1.47960000       1.72850000      -0.27460000
H        0.28520000       1.49950000      -0.16490000
H       -0.04700000      -0.45440000       1.26520000
H       -1.80770000      -0.23550000       1.16410000
H       -0.23310000      -2.64980000       0.12870000
H       -1.89420000      -2.48920000       2.39020000
H       -3.24070000      -2.19660000       0.37380000
H       -3.00760000      -1.70560000      -2.05270000
H       -1.47650000      -2.59000000      -2.10380000
H       -4.25130000      -3.86100000      -1.66860000
H       -2.87100000      -4.64980000      -2.45240000
H       -1.65810000      -4.74830000      -0.25680000
H       -3.26410000      -4.68990000       0.49030000
