15
Properties=species:S:1:pos:R:3 gdb_131265=T pbc="F F F"
O        0.54460000       1.36650000       0.08860000
C        0.22020000       0.04790000       0.00260000
C        0.25900000      -0.81760000      -1.07170000
N       -0.17440000      -2.01420000      -0.58270000
N       -0.49150000      -1.97750000       0.71430000
C       -0.25090000      -0.72020000       1.09510000
C       -0.45280000      -0.25360000       2.48140000
C       -1.09740000      -1.08730000       3.50410000
O        0.31400000      -0.89370000       3.52120000
H        0.83550000       1.68310000      -0.77150000
H        0.55080000      -0.68460000      -2.10090000
H       -0.28120000      -2.87740000      -1.08670000
H       -0.50320000       0.82880000       2.58360000
H       -1.65050000      -0.61040000       4.31310000
H       -1.42750000      -2.08630000       3.22730000
