21
Properties=species:S:1:pos:R:3 gdb_113925=T pbc="F F F"
C       -0.15740000       1.51750000       0.06450000
C       -0.31910000       0.00730000      -0.09950000
O        0.92080000      -0.67200000       0.09490000
C       -1.41550000      -0.56340000       0.81520000
C       -1.61070000      -2.04940000       0.61890000
O       -2.74270000      -2.66160000       1.24870000
C       -2.67220000      -2.67620000      -0.18900000
C       -3.79220000      -1.94830000      -0.88950000
O       -5.01490000      -2.65230000      -0.74400000
H        0.64800000       1.88190000      -0.57860000
H       -1.07900000       2.04780000      -0.19570000
H        0.09030000       1.77150000       1.10310000
H       -0.58170000      -0.21230000      -1.14200000
H        1.24830000      -0.43680000       0.97060000
H       -1.12900000      -0.38760000       1.86260000
H       -2.35290000      -0.02250000       0.65820000
H       -0.68940000      -2.62220000       0.72330000
H       -2.46960000      -3.66660000      -0.60100000
H       -3.88010000      -0.91910000      -0.51570000
H       -3.59120000      -1.89970000      -1.96550000
H       -5.14970000      -2.77250000       0.20310000
