20
Properties=species:S:1:pos:R:3 gdb_38981=T pbc="F F F"
C       -0.02310000       1.56300000      -0.10380000
C        1.50590000       1.57290000       0.05740000
N        2.15180000       0.79770000      -1.00330000
C        1.54500000       0.06990000       0.09540000
C        2.31780000      -0.95860000       0.86760000
O        1.60990000      -1.37380000       2.02750000
C        0.28230000      -1.78470000       1.73950000
C       -0.57450000      -0.60030000       1.27840000
C        0.00940000      -0.00170000      -0.00930000
H       -0.56020000       2.01740000       0.73240000
H       -0.39540000       2.00040000      -1.03660000
H        2.10440000       2.30990000       0.58110000
H        1.60010000       0.76480000      -1.85990000
H        2.51230000      -1.82900000       0.21500000
H        3.28340000      -0.56880000       1.20090000
H        0.28520000      -2.58150000       0.97490000
H       -0.10900000      -2.21280000       2.66700000
H       -1.61690000      -0.90850000       1.13940000
H       -0.55730000       0.14730000       2.08000000
H       -0.36060000      -0.54660000      -0.88710000
