20
Properties=species:S:1:pos:R:3 gdb_112483=T pbc="F F F"
C        0.26780000       1.43520000      -0.25360000
N        0.45290000       0.00080000      -0.08500000
C        0.58440000      -0.72610000      -1.09200000
O        0.59030000      -0.40540000      -2.44660000
C        0.89200000      -1.79920000      -2.81010000
C        2.21640000      -1.85470000      -3.54630000
O        2.14260000      -1.12910000      -4.75840000
C        0.80510000      -2.20930000      -1.31370000
C        1.98060000      -2.86680000      -0.59870000
H        1.01650000       1.96450000       0.34540000
H        0.33940000       1.77790000      -1.29260000
H       -0.71450000       1.71940000       0.14030000
H        0.09340000      -2.18720000      -3.44920000
H        3.02280000      -1.47630000      -2.90060000
H        2.45450000      -2.89120000      -3.80910000
H        1.86500000      -0.23510000      -4.52560000
H       -0.11130000      -2.77340000      -1.11470000
H        2.91540000      -2.32340000      -0.75770000
H        1.78800000      -2.88220000       0.47750000
H        2.11950000      -3.89930000      -0.93380000
