18
Properties=species:S:1:pos:R:3 gdb_90633=T pbc="F F F"
C       -0.11410000       1.45880000      -0.04380000
C        0.00460000      -0.05630000       0.05980000
C        1.06740000      -0.69020000      -0.90000000
C        1.88470000      -1.14250000       0.31430000
C        0.84250000      -0.53140000       1.26090000
C        1.02470000      -2.02290000       1.20390000
O       -0.01350000      -2.81520000       0.70920000
C        1.72500000      -2.60620000       2.33280000
N        2.28350000      -3.10140000       3.21640000
H        0.86720000       1.94090000       0.03170000
H       -0.55840000       1.74690000      -1.00230000
H       -0.74690000       1.86130000       0.75450000
H       -0.98280000      -0.52090000       0.00480000
H        0.72080000      -1.48260000      -1.56800000
H        1.58990000       0.06880000      -1.48640000
H        2.96480000      -1.16840000       0.39500000
H        0.97820000       0.00760000       2.19140000
H        0.36960000      -3.60420000       0.30820000
