19
Properties=species:S:1:pos:R:3 gdb_38086=T pbc="F F F"
C       -0.06890000       1.55340000      -0.06090000
C        1.50080000       1.59180000       0.01120000
C        2.12290000       1.98470000       1.32470000
C        2.39630000       0.93140000       2.09510000
C        1.95420000      -0.38500000       1.47000000
C        0.65570000      -0.89980000       2.07670000
C       -0.40230000      -0.67200000       1.29800000
C       -0.02830000      -0.01690000      -0.00500000
C        1.52790000       0.03470000       0.03000000
H       -0.58580000       2.03640000       0.77140000
H       -0.47080000       1.94490000      -0.99870000
H        1.96290000       2.08550000      -0.84830000
H        2.29970000       3.01860000       1.60380000
H        2.82770000       0.98040000       3.08960000
H        2.74880000      -1.14060000       1.50820000
H        0.61870000      -1.34360000       3.06620000
H       -1.42870000      -0.90380000       1.56440000
H       -0.48920000      -0.49430000      -0.87430000
H        2.07170000      -0.47420000      -0.76600000
