23
Properties=species:S:1:pos:R:3 gdb_89174=T pbc="F F F"
C       -0.07860000       1.56340000       0.10720000
C        0.04530000       0.04720000       0.06960000
C       -1.16710000      -0.59720000      -0.59200000
C        1.33750000      -0.68820000      -0.23560000
C        2.57600000      -0.03740000       0.35350000
O        2.97580000       1.17000000      -0.26740000
C        1.89340000      -0.00400000       1.76370000
C        0.69140000      -0.76260000       1.17220000
C        0.05410000      -1.90700000       1.91330000
H        0.82140000       2.05710000       0.46870000
H       -0.26950000       1.94860000      -0.90090000
H       -0.92480000       1.86210000       0.73860000
H       -1.31900000      -0.17240000      -1.59050000
H       -1.05710000      -1.67830000      -0.71050000
H       -2.07970000      -0.41290000      -0.01310000
H        1.36310000      -1.44020000      -1.01760000
H        3.40980000      -0.75280000       0.36220000
H        3.78440000       1.47130000       0.15920000
H        2.44140000      -0.59080000       2.50640000
H        1.69200000       0.98640000       2.18130000
H       -0.47030000      -1.54400000       2.80650000
H       -0.67320000      -2.45190000       1.30730000
H        0.81030000      -2.62520000       2.25180000
