18
Properties=species:S:1:pos:R:3 gdb_87444=T pbc="F F F"
O        0.25530000       1.37070000      -0.04600000
C        0.07290000      -0.01710000       0.00530000
C       -0.38930000      -0.73640000       1.26970000
C       -1.26610000      -0.64990000       0.05490000
C       -2.67710000      -0.16050000      -0.18690000
C       -2.60480000      -0.77040000      -1.62290000
C       -3.87840000      -1.60320000      -1.45430000
C       -3.16690000      -1.64130000      -0.09940000
N       -1.77450000      -1.79220000      -0.78510000
H       -0.53490000       1.79680000       0.30060000
H        0.84310000      -0.51180000      -0.57860000
H        0.07770000      -1.68530000       1.51540000
H       -0.65610000      -0.12620000       2.12900000
H       -3.19700000       0.74540000       0.14380000
H       -2.17140000      -0.31410000      -2.51350000
H       -4.83010000      -1.06810000      -1.49920000
H       -3.91430000      -2.54590000      -2.00620000
H       -3.39710000      -2.20840000       0.80330000
