17
Properties=species:S:1:pos:R:3 gdb_18838=T pbc="F F F"
O       -0.02750000       1.43840000      -0.08200000
C        0.01910000       0.02690000       0.01990000
C        0.61530000      -0.52300000       1.34620000
C       -0.32240000      -1.67040000       1.68430000
C       -1.76720000      -1.40280000       1.90040000
C       -2.20250000      -0.08110000       1.28240000
C       -1.40050000      -0.53190000       0.03530000
N       -1.27750000      -1.95250000       0.57480000
H        0.87440000       1.76710000      -0.14160000
H        0.56050000      -0.40710000      -0.83430000
H        1.64500000      -0.87150000       1.22570000
H        0.61380000       0.26280000       2.10890000
H        0.08050000      -2.56650000       2.14580000
H       -2.36220000      -2.01220000       2.57480000
H       -3.27640000      -0.06460000       1.08760000
H       -1.91030000       0.85390000       1.76770000
H       -1.90980000      -0.48280000      -0.92630000
