13
Properties=species:S:1:pos:R:3 gdb_44119=T pbc="F F F"
N       -0.08600000       0.97390000      -0.64890000
C       -0.00990000      -0.09970000      -0.01620000
O        1.13220000      -0.77080000       0.37280000
C        0.77170000      -1.93060000       1.06740000
C       -0.71450000      -1.94660000       1.07260000
O       -1.11530000      -0.79540000       0.39150000
C        0.03850000      -3.01310000       0.26970000
C        0.04450000      -3.02110000      -1.16270000
N        0.05520000      -3.03260000      -2.31870000
H        0.83780000       1.33450000      -0.87170000
H        1.43470000      -2.18490000       1.88350000
H       -1.36380000      -2.22280000       1.89230000
H        0.04790000      -3.99380000       0.73620000
