17
Properties=species:S:1:pos:R:3 gdb_44253=T pbc="F F F"
O        0.05050000      -0.00250000      -0.45730000
C       -0.00780000       1.14440000      -0.12430000
C       -1.15550000       2.07410000       0.30510000
C       -0.07360000       3.15550000       0.65560000
C        1.05750000       2.23840000       0.09250000
C        2.06220000       1.96600000       1.23750000
C        1.26690000       2.21950000       2.52980000
C        0.20630000       3.26320000       2.15500000
O       -0.31160000       4.04660000       2.90740000
H       -1.80030000       2.35940000      -0.53180000
H       -1.79120000       1.71060000       1.11810000
H       -0.24080000       4.13680000       0.21400000
H        1.54270000       2.54740000      -0.83650000
H        2.47520000       0.95630000       1.17280000
H        2.89740000       2.66990000       1.16500000
H        0.73720000       1.31160000       2.85020000
H        1.86310000       2.55870000       3.37840000
