27
Properties=species:S:1:pos:R:3 gdb_113193=T pbc="F F F"
C       -0.14530000       1.59100000      -0.51090000
C       -0.04120000       0.20840000       0.14520000
C       -1.36010000      -0.53940000       0.12140000
C       -1.77310000      -1.38100000      -1.06700000
C       -1.50800000      -2.04120000       0.27000000
C       -0.26810000      -2.91050000       0.39870000
C       -2.74280000      -2.51210000       1.04900000
C       -3.24740000      -3.88680000       0.58340000
C       -2.51640000      -2.49260000       2.56870000
H        0.81350000       2.11840000      -0.48250000
H       -0.45430000       1.50600000      -1.55800000
H       -0.88490000       2.21630000       0.00150000
H        0.73480000      -0.37180000      -0.36570000
H        0.29890000       0.32400000       1.18320000
H       -2.16980000       0.03020000       0.57670000
H       -2.79590000      -1.31770000      -1.42580000
H       -1.03940000      -1.52550000      -1.85520000
H        0.54950000      -2.54200000      -0.22510000
H        0.09890000      -2.94870000       1.43040000
H       -0.47300000      -3.93870000       0.08210000
H       -3.53830000      -1.78640000       0.82990000
H       -2.54330000      -4.68480000       0.84230000
H       -4.20270000      -4.13000000       1.06050000
H       -3.39630000      -3.90860000      -0.50100000
H       -2.17140000      -1.50970000       2.90590000
H       -3.44290000      -2.72670000       3.10360000
H       -1.76890000      -3.23300000       2.87370000
