17
Properties=species:S:1:pos:R:3 gdb_90058=T pbc="F F F"
O        0.12010000       1.43160000      -0.18550000
C        0.04830000       0.04080000       0.01130000
C        0.23730000      -0.49730000       1.49410000
C       -1.29400000      -0.64280000       1.54130000
C       -2.15510000       0.67260000       1.53940000
C       -2.81500000      -0.16510000       0.42610000
C       -1.40230000      -0.60160000      -0.03900000
C       -2.62690000      -1.40670000       1.42350000
O       -3.16900000      -2.41510000       1.73530000
H        1.04040000       1.69970000      -0.09010000
H        0.69190000      -0.48460000      -0.70570000
H        0.77930000      -1.44620000       1.51010000
H        0.68070000       0.19400000       2.21530000
H       -2.73720000       0.86720000       2.44220000
H       -1.62970000       1.55800000       1.19180000
H       -3.69820000       0.07060000      -0.16710000
H       -1.35400000      -1.55460000      -0.57010000
