20
Properties=species:S:1:pos:R:3 gdb_63733=T pbc="F F F"
C       -0.51540000       1.54590000       0.03120000
C       -0.00100000       0.10980000       0.01140000
C       -1.10040000      -0.90050000      -0.31430000
N        1.25510000      -0.04800000      -0.82030000
C        2.01930000      -0.51100000       0.35310000
C        3.03750000      -1.62160000       0.42780000
C        3.46160000      -0.19840000       0.66230000
C        0.83980000      -0.29060000       1.24890000
O        0.62950000      -0.37670000       2.42550000
H        0.30020000       2.24720000       0.22400000
H       -0.96290000       1.80420000      -0.93440000
H       -1.27390000       1.66860000       0.81090000
H       -1.51190000      -0.70640000      -1.31150000
H       -0.72110000      -1.92750000      -0.29110000
H       -1.91740000      -0.82630000       0.40960000
H        1.14400000      -0.78440000      -1.51210000
H        2.97530000      -2.29810000       1.27390000
H        3.32070000      -2.08710000      -0.51110000
H        4.01870000       0.30270000      -0.12170000
H        3.69280000       0.11440000       1.67510000
