20
Properties=species:S:1:pos:R:3 gdb_117405=T pbc="F F F"
C        0.08850000       1.59930000      -0.19030000
C        0.01270000       0.07890000      -0.03090000
C        0.68130000      -0.65920000      -1.19070000
C        0.63590000      -2.16310000      -1.08430000
N        0.08790000      -2.76510000      -0.11340000
O        1.26160000      -2.70670000      -2.17150000
C        1.32030000      -4.12970000      -2.25180000
C        2.01670000      -4.50940000      -3.47050000
C        2.58700000      -4.85780000      -4.46750000
H        1.12720000       1.94650000      -0.23420000
H       -0.40760000       1.93130000      -1.10950000
H       -0.39540000       2.10750000       0.64930000
H        0.48440000      -0.22780000       0.90820000
H       -1.03100000      -0.24280000       0.04420000
H        0.22050000      -0.38020000      -2.14760000
H        1.73500000      -0.36480000      -1.28440000
H        0.13510000      -3.77980000      -0.17800000
H        1.84460000      -4.53500000      -1.37450000
H        0.30380000      -4.54900000      -2.25060000
H        3.09290000      -5.16040000      -5.35100000
