17
Properties=species:S:1:pos:R:3 gdb_71792=T pbc="F F F"
O       -0.03700000       1.40980000       0.01100000
C       -0.02600000       0.01910000      -0.04240000
C        0.48320000      -0.76870000      -1.27010000
C       -0.54650000      -1.85310000      -0.87160000
C       -0.11880000      -2.52890000       0.49400000
O        1.11820000      -1.96110000       0.98400000
C        0.38740000      -0.75450000       1.28690000
C       -0.97870000      -1.49600000       1.27810000
C       -1.36620000      -0.78990000      -0.05300000
H        0.87260000       1.71670000       0.10540000
H        0.18110000      -0.26440000      -2.19240000
H        1.53820000      -1.05080000      -1.30730000
H       -0.98510000      -2.50230000      -1.62790000
H       -0.15110000      -3.61540000       0.57990000
H        0.81800000      -0.16710000       2.10050000
H       -1.59510000      -1.70570000       2.14980000
H       -2.33110000      -0.38010000      -0.33920000
