23
Properties=species:S:1:pos:R:3 gdb_39957=T pbc="F F F"
C        0.72350000       1.42130000      -0.23220000
C        1.37930000       0.05670000      -0.23060000
C       -0.10240000       0.18910000      -0.02780000
C       -0.87640000      -0.25630000       1.21960000
C       -1.75950000      -1.14630000       0.30660000
C       -1.61710000      -2.69330000       0.31340000
C       -3.13070000      -2.79770000      -0.01570000
C       -3.28940000      -1.32680000       0.45680000
C       -1.18470000      -0.40350000      -0.93910000
H        0.89470000       2.07100000       0.62070000
H        0.63780000       1.94540000      -1.17920000
H        1.73490000      -0.33930000      -1.17700000
H        1.99230000      -0.21400000       0.62370000
H       -0.31080000      -0.77330000       2.00200000
H       -1.44550000       0.55920000       1.68140000
H       -0.90580000      -3.13740000      -0.38880000
H       -1.39490000      -3.06930000       1.31770000
H       -3.30880000      -2.90180000      -1.08960000
H       -3.70960000      -3.56320000       0.50600000
H       -3.59940000      -1.26830000       1.50570000
H       -3.93100000      -0.66430000      -0.13170000
H       -1.87480000       0.35560000      -1.32510000
H       -0.84860000      -1.02720000      -1.77390000
