21
Properties=species:S:1:pos:R:3 gdb_1575=T pbc="F F F"
C       -0.05060000       1.49910000      -0.07200000
C       -0.00350000      -0.00520000       0.14340000
O       -1.30430000      -0.52170000      -0.04800000
C       -1.41500000      -1.94010000       0.00170000
C       -1.39170000      -2.45820000       1.44300000
C       -2.71450000      -2.30810000      -0.71810000
C       -2.73200000      -1.89360000      -2.19080000
H        0.94240000       1.93690000       0.06840000
H       -0.39450000       1.73160000      -1.08390000
H       -0.73920000       1.96590000       0.63810000
H        0.69860000      -0.47480000      -0.56650000
H        0.36820000      -0.22800000       1.15630000
H       -0.56690000      -2.38140000      -0.55180000
H       -2.22850000      -2.03720000       2.00970000
H       -1.47610000      -3.54960000       1.46040000
H       -0.46310000      -2.19040000       1.95510000
H       -2.86500000      -3.39060000      -0.62710000
H       -3.54500000      -1.82870000      -0.18460000
H       -3.68920000      -2.14070000      -2.66000000
H       -2.56950000      -0.81730000      -2.28560000
H       -1.94340000      -2.40440000      -2.75540000
