19
Properties=species:S:1:pos:R:3 gdb_38910=T pbc="F F F"
C       -0.07670000       1.45930000      -0.15250000
C        1.34790000       1.93400000       0.26470000
C        2.24140000       0.73880000      -0.11020000
C        3.50910000       0.32870000       0.68310000
C        3.40830000      -1.20050000       0.77280000
O        2.46780000      -1.64290000       1.75280000
C        2.05910000      -1.65520000       0.36450000
C        1.28600000      -0.43450000       0.02940000
C        0.01270000      -0.05240000      -0.01600000
H       -0.86450000       1.89340000       0.47240000
H       -0.30780000       1.75270000      -1.18770000
H        1.63960000       2.87580000      -0.20820000
H        1.37350000       2.07980000       1.35090000
H        2.52870000       0.81900000      -1.17090000
H        4.43320000       0.64200000       0.18890000
H        3.51220000       0.74510000       1.69630000
H        4.29410000      -1.82380000       0.67070000
H        1.84810000      -2.63840000      -0.04590000
H       -0.85790000      -0.69440000       0.05300000
