21
Properties=species:S:1:pos:R:3 gdb_114990=T pbc="F F F"
C       -0.02010000       1.47530000      -0.16120000
C        0.00590000      -0.04760000      -0.05180000
O        0.65660000      -0.53600000      -1.21910000
C        0.98760000      -1.92330000      -1.16280000
C        1.45440000      -2.28200000      -2.56840000
O        0.45540000      -2.00990000      -3.52820000
C        2.02920000      -2.17680000      -0.07190000
C        1.63280000      -1.46310000       1.19390000
C        0.69470000      -0.51960000       1.20400000
H        0.99850000       1.87330000      -0.15540000
H       -0.50850000       1.77780000      -1.09150000
H       -0.57150000       1.90980000       0.67790000
H       -1.03800000      -0.41490000      -0.04410000
H        0.07480000      -2.49910000      -0.93730000
H        2.38370000      -1.72850000      -2.78360000
H        1.67990000      -3.35230000      -2.62420000
H        0.15010000      -1.11620000      -3.32930000
H        2.11620000      -3.25510000       0.11300000
H        3.02050000      -1.84060000      -0.40790000
H        2.12980000      -1.75430000       2.11550000
H        0.38960000      -0.04010000       2.13050000
