16
Properties=species:S:1:pos:R:3 gdb_87305=T pbc="F F F"
C        0.05430000       1.51350000      -0.13350000
C        0.06580000       0.02020000       0.06580000
O        1.32680000      -0.65200000       0.06460000
C        0.55630000      -0.69200000       1.27390000
C        1.15110000       0.06580000       2.46110000
C        2.23570000      -0.67050000       3.11140000
N        3.09460000      -1.23910000       3.63330000
C       -0.02770000      -1.96960000       1.61140000
C       -0.52080000      -3.02050000       1.92080000
H        0.85380000       2.01670000       0.41310000
H        0.18740000       1.73860000      -1.19650000
H       -0.90810000       1.93210000       0.17850000
H       -0.70550000      -0.51310000      -0.49220000
H        1.53950000       1.03170000       2.13150000
H        0.36450000       0.25510000       3.20020000
H       -0.94460000      -3.95720000       2.18890000
