19
Properties=species:S:1:pos:R:3 gdb_57994=T pbc="F F F"
C       -0.06820000       1.21310000      -0.71530000
N       -0.05080000      -0.03510000       0.02690000
C        1.23380000      -0.52510000       0.48500000
C       -1.22570000      -0.74440000       0.15000000
O       -2.30960000      -0.30120000      -0.20170000
N       -1.10250000      -1.99070000       0.75340000
C       -2.25780000      -2.88220000       0.75620000
C       -2.10740000      -4.01520000      -0.15590000
C       -1.95190000      -4.95450000      -0.88950000
H        0.52050000       1.13680000      -1.63950000
H       -1.10200000       1.44220000      -0.96720000
H        0.34700000       2.02840000      -0.11030000
H        1.14340000      -1.01260000       1.46020000
H        1.70800000      -1.22570000      -0.22000000
H        1.91120000       0.32390000       0.60890000
H       -0.20870000      -2.45190000       0.71130000
H       -2.44070000      -3.25350000       1.77250000
H       -3.11540000      -2.26720000       0.46840000
H       -1.83400000      -5.77920000      -1.54800000
