16
Properties=species:S:1:pos:R:3 gdb_28819=T pbc="F F F"
C       -0.46160000       1.38120000       0.16380000
C       -0.01470000      -0.04440000      -0.02220000
N       -0.12800000      -0.58120000      -1.18750000
C        0.22230000      -1.88080000      -1.50250000
C        0.23880000      -2.96460000      -0.70160000
C       -0.02900000      -2.92960000       0.74310000
N       -0.71590000      -3.84310000       1.30670000
N        0.63760000      -1.92250000       1.47310000
C        0.61640000      -0.68760000       1.14980000
H        0.37520000       2.01460000       0.48240000
H       -0.86770000       1.76640000      -0.77150000
H       -1.22560000       1.45030000       0.94740000
H        0.39800000      -2.01980000      -2.56660000
H        0.39710000      -3.94560000      -1.13860000
H       -0.73230000      -3.68500000       2.31780000
H        1.14300000      -0.00240000       1.82190000
