23
Properties=species:S:1:pos:R:3 gdb_72460=T pbc="F F F"
C       -0.04390000       1.52680000       0.00860000
C        0.00920000      -0.00070000       0.01400000
C        0.80040000      -0.57770000      -1.20510000
C        1.59520000      -1.80650000      -0.67400000
C        1.00940000      -2.03830000       0.74230000
C        0.78210000      -0.59210000       1.21540000
C       -0.32930000      -2.73960000       0.64190000
C       -1.43510000      -2.06960000       0.31800000
C       -1.42390000      -0.58660000       0.04390000
H        0.96400000       1.95590000      -0.01090000
H       -0.58280000       1.90300000      -0.86900000
H       -0.55490000       1.91150000       0.89870000
H        0.12120000      -0.85280000      -2.01740000
H        1.48210000       0.17750000      -1.60890000
H        1.49530000      -2.68480000      -1.31720000
H        2.66380000      -1.57490000      -0.60120000
H        1.69300000      -2.60160000       1.38370000
H        1.73930000      -0.07380000       1.35260000
H        0.22280000      -0.52870000       2.15410000
H       -0.36170000      -3.81280000       0.81120000
H       -2.39140000      -2.58250000       0.24450000
H       -2.02670000      -0.06600000       0.80410000
H       -1.92320000      -0.37870000      -0.91350000
