19
Properties=species:S:1:pos:R:3 gdb_63545=T pbc="F F F"
C       -0.11750000       1.52760000      -0.00240000
C       -0.01120000       0.02070000       0.04160000
O       -1.15720000      -0.65850000      -0.40380000
C        1.32380000      -0.66150000      -0.19990000
C        0.68440000      -0.66460000       1.16900000
C        1.30050000      -0.11060000       2.48090000
C        0.80410000      -1.39890000       3.16620000
O       -0.61460000      -1.45110000       2.99650000
C        0.21360000      -1.89960000       1.91320000
H        0.78130000       2.00370000       0.39970000
H       -0.24560000       1.87890000      -1.03400000
H       -0.98020000       1.86500000       0.58060000
H       -1.24920000      -0.49330000      -1.34900000
H        1.30530000      -1.59270000      -0.75770000
H        2.20780000      -0.05010000      -0.35630000
H        2.39040000      -0.03350000       2.43420000
H        0.87800000       0.81350000       2.88330000
H        1.22850000      -1.92660000       4.01190000
H        0.05300000      -2.90430000       1.54210000
