17
Properties=species:S:1:pos:R:3 gdb_47073=T pbc="F F F"
O        0.04990000      -0.01310000       0.15400000
C        0.01330000       1.18740000       0.03870000
C       -1.24550000       2.08020000       0.11680000
C       -0.72460000       3.52510000       0.33320000
C        0.61180000       3.51380000      -0.43450000
O        1.63440000       4.40100000       0.00020000
C        2.84210000       3.65210000       0.17560000
C        2.41610000       2.20290000       0.21270000
C        1.13830000       2.13420000      -0.15400000
H       -1.76760000       1.99350000      -0.84600000
H       -1.93380000       1.72110000       0.88480000
H       -1.42440000       4.29070000      -0.00930000
H       -0.51310000       3.70090000       1.39290000
H        0.41860000       3.67230000      -1.51000000
H        3.55090000       3.85690000      -0.64510000
H        3.32800000       3.96490000       1.10930000
H        3.04580000       1.39530000       0.56400000
