15
Properties=species:S:1:pos:R:3 gdb_37886=T pbc="F F F"
O       -0.03990000       1.44070000       0.08690000
C        1.39180000       1.46970000      -0.04310000
C        2.04150000       0.79880000       1.24030000
O        0.99620000       0.40160000       2.11250000
C        0.40140000      -0.63510000       1.34820000
O        1.47790000      -1.50800000       1.05020000
C        2.30210000      -0.53700000       0.41430000
C        1.44510000       0.07530000      -0.70930000
C        0.03190000      -0.00010000      -0.04220000
H        1.78440000       2.41170000      -0.42520000
H        2.83180000       1.30560000       1.78990000
H       -0.37690000      -1.13590000       1.91900000
H        3.30780000      -0.91060000       0.24410000
H        1.56880000      -0.14500000      -1.76680000
H       -0.82910000      -0.43650000      -0.54800000
