17
Properties=species:S:1:pos:R:3 gdb_43726=T pbc="F F F"
O        0.66910000       0.31560000      -0.67130000
C        0.23480000       1.27090000      -0.11220000
C       -1.12770000       1.89970000       0.16790000
C       -0.31110000       2.97780000       0.90520000
C       -0.26100000       4.41340000       0.35120000
C        0.10120000       5.24050000       1.56040000
C        0.00920000       4.53860000       2.68860000
C       -0.43070000       3.11760000       2.43380000
O        0.93330000       2.24370000       0.54990000
H       -1.66360000       2.22640000      -0.72530000
H       -1.78660000       1.28640000       0.78550000
H        0.46300000       4.48260000      -0.46750000
H       -1.23630000       4.71110000      -0.05840000
H        0.37450000       6.28660000       1.48940000
H        0.19560000       4.92030000       3.68540000
H       -1.46620000       2.95520000       2.76370000
H        0.18560000       2.36480000       2.93640000
