18
Properties=species:S:1:pos:R:3 gdb_92859=T pbc="F F F"
C       -0.05820000       1.58300000      -0.04650000
C       -0.01470000       0.05400000       0.00650000
C        0.95330000      -0.54800000      -1.08400000
N        2.30830000      -0.60710000      -0.47750000
C        2.09430000      -0.56160000       0.76670000
O        2.94640000      -0.39040000       1.79340000
C        2.10780000      -0.04140000       2.92260000
O        0.83990000       0.32460000       2.42780000
C        0.68120000      -0.48750000       1.26330000
H        0.94820000       2.00980000       0.00010000
H       -0.52280000       1.91330000      -0.98020000
H       -0.63390000       1.99140000       0.78820000
H       -1.02580000      -0.34890000      -0.09870000
H        0.63220000      -1.54930000      -1.39920000
H        0.98680000       0.07680000      -1.98190000
H        2.04960000      -0.91910000       3.58370000
H        2.55480000       0.80950000       3.44070000
H        0.29080000      -1.47840000       1.54690000
