18
Properties=species:S:1:pos:R:3 gdb_45089=T pbc="F F F"
O       -0.00790000      -0.02440000      -0.24270000
C        0.01420000       1.17470000      -0.07400000
C       -1.26230000       1.98790000       0.14890000
C       -1.28760000       3.26980000      -0.68410000
C       -1.01320000       4.60430000      -0.07820000
N       -0.03370000       3.97180000      -0.95700000
C        1.20370000       3.43020000      -0.44850000
C        1.46830000       3.04650000       0.97460000
C        1.28170000       1.95410000      -0.07950000
H       -2.10900000       1.34470000      -0.09620000
H       -1.33430000       2.21850000       1.21880000
H       -1.94580000       3.22250000      -1.54910000
H       -1.47880000       5.50370000      -0.47250000
H       -0.81230000       4.63280000       0.99100000
H        2.05980000       3.81340000      -0.99590000
H        2.47250000       3.18790000       1.35810000
H        0.69210000       3.16410000       1.72100000
H        2.15050000       1.38190000      -0.38170000
