18
Properties=species:S:1:pos:R:3 gdb_18093=T pbc="F F F"
C       -0.03400000       1.47370000      -0.49230000
C        1.24710000       2.06040000       0.04430000
C        2.02140000       1.14980000       0.62960000
C        1.41500000      -0.23260000       0.63450000
C        1.22250000      -0.83930000       2.05680000
C       -0.24560000      -0.63330000       2.33160000
C       -0.90910000      -0.19260000       1.26540000
C       -0.02580000       0.01640000       0.05920000
H       -0.92040000       2.03270000      -0.16690000
H       -0.04740000       1.49390000      -1.59050000
H        1.49590000       3.11050000      -0.06760000
H        2.99420000       1.34750000       1.06890000
H        2.00450000      -0.91300000       0.00910000
H        1.48280000      -1.90620000       2.08350000
H        1.86190000      -0.35140000       2.80310000
H       -0.69120000      -0.84980000       3.29700000
H       -1.97570000       0.00700000       1.23280000
H       -0.28790000      -0.69100000      -0.73610000
