22
Properties=species:S:1:pos:R:3 gdb_70090=T pbc="F F F"
C       -0.09520000       1.49710000       0.09320000
C        0.08970000       0.00280000      -0.00080000
N       -0.49880000      -0.84550000       1.06250000
C        0.98670000      -0.76940000       0.90460000
C        1.51230000      -1.91890000       0.11530000
C        0.98710000      -1.91350000      -1.10990000
C        0.09480000      -0.70810000      -1.38220000
C       -1.32220000      -1.12800000      -1.81190000
C        0.73830000       0.16430000      -2.47820000
H        0.64300000       2.04270000      -0.50180000
H       -1.09050000       1.79650000      -0.25700000
H        0.00450000       1.83170000       1.13140000
H       -0.77520000      -0.23470000       1.83110000
H        1.56780000      -0.30170000       1.69330000
H        2.18050000      -2.66940000       0.52060000
H        1.14840000      -2.67250000      -1.86910000
H       -1.79670000      -1.71970000      -1.02710000
H       -1.94540000      -0.24780000      -2.00900000
H       -1.29130000      -1.72130000      -2.73220000
H        0.85750000      -0.41670000      -3.39890000
H        0.11840000       1.03520000      -2.71670000
H        1.73030000       0.51640000      -2.17810000
