19
Properties=species:S:1:pos:R:3 gdb_68882=T pbc="F F F"
C        0.06380000       1.57330000       0.04280000
C       -0.02170000       0.07440000       0.04770000
C        1.14400000      -0.80520000      -0.37730000
C        0.60540000      -0.98040000       0.99970000
O        1.40000000      -0.83700000       2.11430000
C       -0.66640000      -1.79630000       0.96990000
O       -1.56310000      -1.39390000       2.03250000
C       -2.27520000      -0.49360000       1.14980000
C       -1.30270000      -0.75780000      -0.01570000
H        1.03930000       1.90370000       0.41430000
H       -0.06260000       1.98330000      -0.96660000
H       -0.70230000       2.02720000       0.68140000
H        1.03340000      -1.57640000      -1.13820000
H        2.09810000      -0.28760000      -0.40690000
H        0.79640000      -0.71160000       2.85860000
H       -0.63040000      -2.88310000       0.84960000
H       -3.29660000      -0.85190000       0.97090000
H       -2.32060000       0.52900000       1.54230000
H       -1.72710000      -1.01180000      -0.98870000
