15
Properties=species:S:1:pos:R:3 gdb_67602=T pbc="F F F"
O        0.21830000       1.35750000      -0.23280000
C        0.11470000      -0.01480000      -0.09590000
C        0.99440000      -0.98430000      -0.85850000
O        0.23810000      -2.04040000      -1.39560000
C       -0.98900000      -2.05190000      -0.70450000
C       -0.90940000      -1.99180000       0.79480000
O        0.38590000      -1.93400000       1.34910000
C        1.08180000      -0.92990000       0.65220000
C       -1.22050000      -0.72710000       0.00790000
H        0.07920000       1.75940000       0.63230000
H        1.82310000      -0.67210000      -1.48220000
H       -1.76150000      -2.61220000      -1.21650000
H       -1.61970000      -2.50790000       1.42920000
H        1.97870000      -0.58670000       1.15430000
H       -2.14590000      -0.16870000       0.02720000
