18
Properties=species:S:1:pos:R:3 gdb_78919=T pbc="F F F"
C        0.01530000       1.49860000       0.02420000
C        0.01230000       0.01020000       0.00160000
C        0.92600000      -1.03790000      -0.56460000
C        0.50380000      -1.05980000       0.93310000
C       -0.80290000      -1.83630000       0.80480000
C       -0.61870000      -2.97690000      -0.21990000
O       -1.81130000      -3.64050000      -0.56570000
C       -0.24940000      -1.80760000      -1.15860000
N       -1.19050000      -0.87480000      -0.35040000
H        1.00480000       1.87280000       0.30790000
H       -0.23360000       1.90770000      -0.96100000
H       -0.71360000       1.88290000       0.74610000
H        1.95980000      -0.96840000      -0.87730000
H        1.22160000      -1.00660000       1.74130000
H       -1.48040000      -1.92980000       1.65420000
H        0.13430000      -3.74290000      -0.01880000
H       -2.47420000      -2.96120000      -0.74270000
H       -0.38300000      -1.87290000      -2.23890000
