14
Properties=species:S:1:pos:R:3 gdb_24574=T pbc="F F F"
O       -0.02370000       1.24600000      -0.30390000
C        0.98360000       2.13080000       0.05910000
C        2.26850000       2.05170000      -0.30500000
N        2.90510000       1.08390000      -1.05590000
C        3.20530000      -0.06990000      -0.58090000
N        3.06300000      -0.47530000       0.72110000
C        1.92850000      -0.60220000       1.30290000
N        0.70430000      -0.77160000       0.72090000
C       -0.04440000      -0.06010000      -0.00290000
H        0.57420000       3.01520000       0.52890000
H        2.88260000       2.91490000      -0.05110000
H        3.74330000      -0.75830000      -1.23440000
H        1.93080000      -0.79010000       2.37760000
H       -0.92660000      -0.50530000      -0.45950000
