21
Properties=species:S:1:pos:R:3 gdb_63207=T pbc="F F F"
C       -0.05320000       1.58590000      -0.05110000
C        0.01610000       0.05730000      -0.02750000
O       -1.32470000      -0.46920000       0.03900000
C        0.76810000      -0.55000000      -1.20200000
C        1.56560000      -1.55500000      -0.83890000
C        1.56040000      -1.79090000       0.64630000
C        2.82010000      -1.28720000       1.41390000
C        2.10470000       0.07200000       1.64420000
C        0.75730000      -0.55850000       1.17480000
H        0.93860000       2.04480000      -0.09090000
H       -0.60780000       1.92430000      -0.93460000
H       -0.57750000       1.95470000       0.83520000
H       -1.75580000      -0.28380000      -0.80250000
H        0.61780000      -0.20200000      -2.22030000
H        2.16500000      -2.15140000      -1.52060000
H        1.21870000      -2.79790000       0.90530000
H        2.97830000      -1.84060000       2.34340000
H        3.76160000      -1.26610000       0.85880000
H        2.12140000       0.46230000       2.66400000
H        2.46740000       0.85480000       0.97490000
H        0.06120000      -0.75650000       1.99070000
