17
Properties=species:S:1:pos:R:3 gdb_43934=T pbc="F F F"
O       -0.09950000      -0.01780000      -0.31510000
C       -0.06370000       1.15360000      -0.08280000
N       -1.08810000       2.12200000       0.05990000
C       -0.17340000       3.03650000       0.74550000
C        0.41270000       4.47070000       0.82060000
N        1.35160000       3.83140000       1.86180000
C        0.15720000       2.98770000       2.24780000
C        2.11160000       2.77050000       1.08710000
C        1.00200000       2.28410000       0.11710000
H       -2.03860000       1.90900000       0.33420000
H        0.89750000       4.88820000      -0.06460000
H       -0.19530000       5.22220000       1.32660000
H       -0.53210000       3.55880000       2.87440000
H        0.39270000       2.02610000       2.71330000
H        2.95210000       3.21900000       0.55400000
H        2.49810000       2.03540000       1.79470000
H        1.19720000       2.65590000      -0.89430000
