19
Properties=species:S:1:pos:R:3 gdb_99660=T pbc="F F F"
O       -0.01260000       1.40620000       0.10910000
C       -0.10690000       0.00040000       0.16000000
C       -1.52850000      -0.51230000      -0.17650000
C       -1.91390000      -0.02440000      -1.50140000
C       -2.15950000       0.40430000      -2.59870000
C       -1.60420000      -2.03080000      -0.09750000
C       -1.65800000      -2.71760000       1.25520000
C       -2.86430000      -2.71260000       0.34900000
O       -3.94760000      -1.88620000       0.66000000
H       -0.31050000       1.67590000      -0.76850000
H        0.61690000      -0.48320000      -0.51560000
H        0.14300000      -0.29370000       1.18360000
H       -2.22150000      -0.08920000       0.55900000
H       -2.41730000       0.76810000      -3.56260000
H       -1.04320000      -2.54140000      -0.87480000
H       -1.10380000      -3.63820000       1.40110000
H       -1.71440000      -2.07600000       2.12920000
H       -3.13010000      -3.64340000      -0.15150000
H       -4.40080000      -2.26230000       1.42150000
