13
Properties=species:S:1:pos:R:3 gdb_130333=T pbc="F F F"
N        0.62790000       0.80670000      -0.97400000
C        0.25120000      -0.31020000      -0.28270000
N       -0.99360000      -0.69550000      -0.13080000
O       -0.95590000      -1.78710000       0.71400000
N        0.31820000      -2.09480000       1.06560000
C        1.07750000      -1.21470000       0.47420000
N        2.45580000      -1.24840000       0.69520000
C        3.44450000      -0.75340000      -0.10580000
O        3.28900000      -0.13230000      -1.13640000
H        1.55760000       0.74430000      -1.37570000
H       -0.08720000       1.17850000      -1.58180000
H        2.73890000      -1.82950000       1.47220000
H        4.44210000      -0.98420000       0.30620000
