20
Properties=species:S:1:pos:R:3 gdb_98402=T pbc="F F F"
C        0.34790000       1.34150000       0.04250000
N        0.06740000      -0.07490000       0.03160000
C       -1.18410000      -0.57740000       0.06340000
O       -2.20760000       0.09160000       0.10310000
C       -1.19220000      -2.10620000       0.04400000
N       -2.40000000      -2.73560000       0.07170000
C       -3.74550000      -2.17320000       0.11650000
N       -0.04560000      -2.69080000       0.00310000
C       -0.00600000      -4.13680000      -0.01660000
H        0.89040000       1.64770000      -0.85940000
H       -0.60610000       1.86990000       0.07950000
H        0.94560000       1.62300000       0.91720000
H        0.79930000      -0.77370000       0.00120000
H       -2.35070000      -3.73930000       0.05750000
H       -4.44580000      -3.01300000       0.12480000
H       -3.90510000      -1.56700000       1.01000000
H       -3.95380000      -1.54370000      -0.75050000
H       -0.46810000      -4.58420000       0.88000000
H       -0.52170000      -4.56170000      -0.89470000
H        1.03230000      -4.47520000      -0.05220000
