21
Properties=species:S:1:pos:R:3 gdb_112779=T pbc="F F F"
C        0.24220000       1.02560000      -0.44200000
O       -0.42150000       0.23530000       0.52260000
C        0.43980000      -0.49470000       1.33640000
C       -0.25890000      -1.36640000       2.38870000
C        0.80960000      -2.46700000       2.15210000
C        0.38950000      -3.92570000       2.19080000
C        1.15820000      -1.78880000       0.76950000
C        0.50970000      -2.37090000      -0.38700000
C       -0.02510000      -2.85390000      -1.35080000
H        0.80560000       0.40880000      -1.15530000
H       -0.52470000       1.58150000      -0.98610000
H        0.93370000       1.74130000       0.03020000
H        1.20270000       0.16120000       1.78550000
H       -0.37530000      -0.96010000       3.39560000
H       -1.23600000      -1.67950000       2.00910000
H        1.66070000      -2.30660000       2.82220000
H       -0.42700000      -4.11760000       1.48890000
H        1.22070000      -4.58820000       1.92640000
H        0.04930000      -4.19970000       3.19560000
H        2.22890000      -1.67530000       0.57390000
H       -0.49680000      -3.27560000      -2.20340000
