18
Properties=species:S:1:pos:R:3 gdb_79594=T pbc="F F F"
C        0.08290000       1.51690000       0.10940000
C       -0.01300000       0.01740000      -0.03870000
C        0.66960000      -0.64250000      -1.16980000
N        1.27090000      -0.68310000       0.21470000
C        1.08890000      -2.17720000       0.19500000
C       -0.24720000      -2.75310000      -0.08080000
C        0.52030000      -2.17140000      -1.25120000
C        1.00650000      -3.01110000      -2.34840000
O        0.99050000      -4.22290000      -2.34800000
H        1.02880000       1.88790000      -0.29390000
H       -0.74020000       2.00780000      -0.42000000
H        0.03100000       1.80100000       1.16480000
H       -0.92740000      -0.40960000       0.35990000
H        1.16690000      -0.08350000      -1.95820000
H        1.92120000      -2.77070000       0.55120000
H       -0.24570000      -3.83820000      -0.11220000
H       -1.17950000      -2.31480000       0.25330000
H        1.42690000      -2.44460000      -3.21030000
