19
Properties=species:S:1:pos:R:3 gdb_118629=T pbc="F F F"
C        0.02270000       1.61190000      -0.03420000
C        0.01930000       0.08210000      -0.07190000
C       -1.38430000      -0.50680000       0.10910000
C       -1.40520000      -2.03720000       0.08700000
O       -0.65980000      -2.50960000       1.20160000
C       -0.33920000      -3.82500000       1.23370000
O        0.23050000      -4.31620000       2.15810000
C       -2.83070000      -2.58000000       0.10910000
O       -3.21200000      -3.44230000       0.85280000
H        1.03460000       2.00600000      -0.16540000
H       -0.60480000       2.03280000      -0.82770000
H       -0.35760000       1.98500000       0.92290000
H        0.43390000      -0.26610000      -1.02740000
H        0.67270000      -0.31330000       0.71240000
H       -1.81400000      -0.17050000       1.06060000
H       -2.04800000      -0.14430000      -0.68610000
H       -0.94980000      -2.38750000      -0.85580000
H       -0.63060000      -4.36500000       0.31450000
H       -3.50130000      -2.11510000      -0.64800000
