13
Properties=species:S:1:pos:R:3 gdb_53929=T pbc="F F F"
N       -0.03810000       1.31500000      -0.42170000
C        0.07910000       0.03950000       0.04910000
N        1.08830000      -0.59870000       0.47870000
C       -1.28160000      -0.71770000       0.03900000
O       -2.17280000      -0.22160000      -0.94740000
C       -1.05740000      -2.16760000      -0.14320000
N       -0.95810000      -3.29350000      -0.37580000
C       -1.93900000      -0.47320000       1.34120000
N       -2.43220000      -0.24960000       2.36000000
H        0.70410000       1.97230000      -0.24890000
H       -0.95650000       1.68350000      -0.60910000
H        1.93610000      -0.03080000       0.49740000
H       -1.85110000      -0.51390000      -1.81020000
