23
Properties=species:S:1:pos:R:3 gdb_52709=T pbc="F F F"
C        0.01790000       1.47730000       0.06260000
C       -0.00490000       0.02160000       0.02140000
C       -0.02150000      -1.18280000      -0.00160000
C       -0.04740000      -2.64520000      -0.06200000
C       -1.49620000      -3.16510000      -0.15110000
C        0.84750000      -3.15320000      -1.22220000
C        1.04720000      -4.65440000      -1.24220000
C        0.15930000      -5.56120000      -2.06120000
C        1.58930000      -5.32680000      -2.47850000
H        1.04420000       1.86150000       0.05290000
H       -0.50370000       1.91020000      -0.79850000
H       -0.46800000       1.85910000       0.96760000
H        0.38700000      -3.02960000       0.87310000
H       -2.09020000      -2.79440000       0.68850000
H       -1.97100000      -2.82190000      -1.07600000
H       -1.51700000      -4.25750000      -0.13740000
H        0.41550000      -2.82230000      -2.17540000
H        1.82210000      -2.65730000      -1.13870000
H        1.39510000      -5.06770000      -0.29740000
H       -0.10750000      -6.53150000      -1.65620000
H       -0.62240000      -5.10060000      -2.65640000
H        1.76610000      -4.70720000      -3.35190000
H        2.30210000      -6.13510000      -2.35810000
