17
Properties=species:S:1:pos:R:3 gdb_19846=T pbc="F F F"
C       -0.02010000       1.51250000      -0.01410000
C        1.40650000       2.09550000       0.04530000
C        2.19630000       1.54690000       1.21610000
O        1.45430000       1.28580000       2.41130000
C        1.95360000       0.16730000       1.67850000
C        0.96620000      -0.68340000       0.92780000
N       -0.45150000      -0.62470000       1.31840000
C       -0.02460000      -0.01010000       0.04530000
H       -0.59340000       1.89110000       0.83530000
H       -0.51450000       1.85670000      -0.92750000
H        1.96030000       1.86870000      -0.87620000
H        1.35480000       3.18830000       0.11630000
H        3.18030000       1.98680000       1.38260000
H        2.75750000      -0.37070000       2.18110000
H        1.36950000      -1.64260000       0.60940000
H       -0.88620000      -1.52680000       1.14120000
H       -0.29500000      -0.52860000      -0.87150000
