18
Properties=species:S:1:pos:R:3 gdb_127478=T pbc="F F F"
C        0.00220000       1.38410000      -0.06050000
N        0.00270000      -0.05650000       0.02980000
N        0.02700000      -0.79800000      -1.10230000
C        0.06190000      -2.05930000      -0.68040000
N        0.15740000      -3.18280000      -1.53220000
C        0.06580000      -2.12620000       0.72700000
O        0.10960000      -3.24860000       1.50070000
C        0.02320000      -0.81830000       1.16670000
C        0.01840000      -0.26350000       2.55010000
H        0.92730000       1.81490000       0.34100000
H       -0.08120000       1.64110000      -1.11610000
H       -0.84630000       1.81380000       0.48270000
H        0.47220000      -2.89230000      -2.45210000
H       -0.74340000      -3.63870000      -1.65110000
H        0.42270000      -3.96110000       0.92890000
H        0.84580000       0.43620000       2.71820000
H       -0.91230000       0.26790000       2.78490000
H        0.12240000      -1.08420000       3.26340000
