18
Properties=species:S:1:pos:R:3 gdb_82674=T pbc="F F F"
C        0.02960000       1.61940000      -0.03460000
C        0.09510000       0.09960000      -0.00390000
C        1.12950000      -0.70390000      -0.84720000
C        2.48780000      -0.22610000      -0.30930000
N        2.17970000      -0.86280000       1.01440000
C        1.19560000      -1.74200000       0.33620000
C        0.68010000      -0.64720000       1.20890000
C        0.16250000      -0.68120000       2.53220000
C       -0.32040000      -0.68530000       3.63410000
H        0.99680000       2.08560000       0.16960000
H       -0.32020000       1.97440000      -1.01030000
H       -0.67390000       1.98040000       0.72280000
H       -0.89940000      -0.32070000      -0.18870000
H        0.94860000      -0.90430000      -1.90150000
H        3.33090000      -0.76800000      -0.74570000
H        2.71220000       0.84480000      -0.28480000
H        1.15850000      -2.81940000       0.42930000
H       -0.73310000      -0.69450000       4.61220000
