18
Properties=species:S:1:pos:R:3 gdb_17872=T pbc="F F F"
O       -0.00040000       0.05390000      -0.06370000
C       -0.01570000       1.25050000      -0.01270000
C       -1.11080000       2.31860000       0.10370000
C       -0.02960000       3.16150000       0.85720000
C        1.05330000       2.34740000       0.07500000
C        1.23580000       2.91370000      -1.35820000
C       -0.07110000       3.57180000      -1.86010000
C       -1.34630000       2.87940000      -1.32390000
H       -2.04250000       2.05380000       0.60700000
H       -0.04590000       4.24340000       0.71480000
H       -0.01240000       2.93570000       1.92520000
H        2.00470000       2.10770000       0.55330000
H        2.04760000       3.64900000      -1.36820000
H        1.54580000       2.09670000      -2.01970000
H       -0.08070000       4.61640000      -1.53350000
H       -0.08610000       3.60330000      -2.95370000
H       -1.65180000       2.05410000      -1.97730000
H       -2.17740000       3.59280000      -1.31210000
