21
Properties=species:S:1:pos:R:3 gdb_90730=T pbc="F F F"
C        0.58290000       1.21880000      -0.06800000
C        0.13550000      -0.20970000      -0.02670000
C       -0.03740000      -1.03170000      -1.06960000
C       -0.54380000      -2.40360000      -0.68240000
C       -0.44840000      -2.37460000       0.85240000
C        0.94700000      -2.74480000       1.47920000
O        1.98630000      -3.05180000       0.57600000
C        1.01350000      -1.33630000       2.13970000
C       -0.20860000      -0.89140000       1.28070000
H        1.47190000       1.37880000       0.55490000
H        0.81780000       1.54250000      -1.08560000
H       -0.19510000       1.88350000       0.32920000
H        0.13470000      -0.74640000      -2.10350000
H       -1.57190000      -2.56330000      -1.03420000
H        0.06300000      -3.21270000      -1.10590000
H       -1.27230000      -2.88660000       1.35270000
H        0.91870000      -3.58320000       2.17950000
H        2.07160000      -2.30910000      -0.03330000
H        0.80260000      -1.35730000       3.21260000
H        1.95310000      -0.79630000       1.98370000
H       -0.99870000      -0.36220000       1.82530000
