23
Properties=species:S:1:pos:R:3 gdb_118347=T pbc="F F F"
C        0.05740000       1.39280000       0.06130000
O        0.03450000      -0.01500000       0.08650000
C       -1.25140000      -0.55520000      -0.13160000
C       -1.12630000      -2.07600000      -0.04640000
C       -0.45740000      -2.41980000       1.27550000
O        0.40430000      -3.24490000       1.42790000
C       -2.49250000      -2.81600000      -0.12840000
C       -3.34940000      -2.34050000      -1.31230000
C       -2.28740000      -4.33660000      -0.20090000
H        1.08940000       1.70560000       0.23550000
H       -0.27540000       1.78740000      -0.91160000
H       -0.58410000       1.82610000       0.84480000
H       -1.95900000      -0.18620000       0.63380000
H       -1.63980000      -0.24120000      -1.11130000
H       -0.47190000      -2.43200000      -0.84990000
H       -0.87220000      -1.85550000       2.14550000
H       -3.04570000      -2.58870000       0.79550000
H       -3.64420000      -1.29140000      -1.22350000
H       -2.81200000      -2.46320000      -2.25970000
H       -4.26690000      -2.93450000      -1.37340000
H       -1.66730000      -4.70940000       0.61770000
H       -3.25100000      -4.85430000      -0.16430000
H       -1.79430000      -4.61460000      -1.13950000
