19
Properties=species:S:1:pos:R:3 gdb_75056=T pbc="F F F"
C       -0.19270000       1.50940000       0.05100000
C       -0.03760000       0.02400000       0.01750000
C        0.02960000      -0.76680000      -1.05950000
C        0.13570000      -2.23540000      -0.72890000
C       -0.12040000      -2.22090000       0.77580000
O       -0.50470000      -3.12620000       1.47170000
C        0.07230000      -0.78220000       1.29890000
C        1.44670000      -0.64680000       1.98170000
O       -0.96020000      -0.45540000       2.21490000
H        0.66650000       1.99280000       0.53210000
H       -0.29730000       1.92340000      -0.95540000
H       -1.07630000       1.78250000       0.63810000
H        0.00150000      -0.40650000      -2.08230000
H       -0.59090000      -2.87580000      -1.24160000
H        1.12780000      -2.66030000      -0.93950000
H        2.26810000      -0.87450000       1.29470000
H        1.57300000       0.37410000       2.35230000
H        1.50140000      -1.33240000       2.83320000
H       -1.18310000      -1.28110000       2.66730000
