18
Properties=species:S:1:pos:R:3 gdb_103225=T pbc="F F F"
O       -0.11230000       1.50460000      -0.05690000
C        0.02030000       0.09230000       0.11000000
C       -1.38980000      -0.47300000       0.02880000
O       -2.21580000       0.16040000       0.96380000
C       -1.98050000      -0.76010000      -1.37140000
C       -1.14870000      -2.06610000      -1.55640000
C       -2.43610000      -2.82260000      -1.85120000
N       -2.92780000      -1.84860000      -0.78620000
C       -1.56200000      -1.99100000      -0.05270000
H        0.69930000       1.92770000       0.23600000
H        0.67240000      -0.33790000      -0.66150000
H        0.44270000      -0.14720000       1.09660000
H       -1.96500000       1.09330000       0.94160000
H       -2.33620000      -0.07590000      -2.14340000
H       -0.14420000      -2.17860000      -1.97870000
H       -2.91050000      -2.67690000      -2.82740000
H       -2.50230000      -3.87230000      -1.54620000
H       -1.42800000      -2.74870000       0.72210000
