20
Properties=species:S:1:pos:R:3 gdb_33147=T pbc="F F F"
C       -0.01850000       1.51370000       0.00280000
C        0.01190000       0.01460000       0.01250000
C       -0.02300000      -0.81340000      -1.08740000
N       -0.00050000      -2.12320000      -0.66360000
C        0.07080000      -3.28520000      -1.52370000
C        1.50870000      -3.65950000      -1.89070000
O        1.43210000      -4.79550000      -2.73320000
C        0.05940000      -2.13780000       0.70860000
C        0.06570000      -0.83810000       1.15570000
H        0.86340000       1.94190000       0.49380000
H       -0.04580000       1.90170000      -1.02000000
H       -0.89720000       1.90780000       0.52740000
H       -0.07130000      -0.57930000      -2.14010000
H       -0.40440000      -4.13330000      -1.02210000
H       -0.49410000      -3.09050000      -2.44020000
H        1.98930000      -2.80560000      -2.39210000
H        2.07630000      -3.86620000      -0.97060000
H        2.32510000      -5.05450000      -2.97680000
H        0.08480000      -3.07420000       1.24430000
H        0.08800000      -0.52530000       2.18930000
