20
Properties=species:S:1:pos:R:3 gdb_106712=T pbc="F F F"
C       -0.43510000       1.41690000       0.17170000
C        0.21490000       0.05580000      -0.11670000
C        0.98150000      -0.47450000       1.05310000
O        0.25250000      -0.96780000       2.19690000
C        1.19580000      -1.85330000       1.56310000
C        0.72920000      -3.18340000       1.07200000
C        2.58230000      -1.45790000       2.05400000
N        3.32130000      -0.98480000       0.85120000
C        2.36790000      -0.07570000       1.54560000
H        0.31770000       2.17180000       0.42210000
H       -0.99100000       1.77610000      -0.69920000
H       -1.12900000       1.34150000       1.01400000
H       -0.55740000      -0.67040000      -0.39320000
H        0.90240000       0.13500000      -0.96710000
H       -0.22420000      -3.09120000       0.54530000
H        1.47070000      -3.61160000       0.39080000
H        0.58670000      -3.88020000       1.90570000
H        3.09960000      -1.77460000       2.95110000
H        4.26140000      -0.72650000       1.15690000
H        2.69210000       0.86010000       1.98310000
