16
Properties=species:S:1:pos:R:3 gdb_67872=T pbc="F F F"
O        0.19420000       1.32540000      -0.22800000
C        0.13220000      -0.05770000      -0.04770000
C        0.83900000      -0.82950000      -1.13290000
C        0.08650000      -1.80370000      -1.64280000
C       -1.28760000      -1.88630000      -1.01420000
C       -1.22240000      -0.83980000       0.09300000
O       -0.73450000      -1.39520000       1.36890000
C        0.37300000      -0.58130000       1.36060000
N        1.21250000      -0.29940000       2.24850000
H        0.37600000       1.72530000       0.63040000
H        1.85300000      -0.58020000      -1.41970000
H        0.40500000      -2.48840000      -2.42090000
H       -2.08450000      -1.67770000      -1.73870000
H       -1.49690000      -2.87370000      -0.58600000
H       -2.12360000      -0.25080000       0.26470000
H        1.02380000      -0.79130000       3.12360000
