15
Properties=species:S:1:pos:R:3 gdb_27577=T pbc="F F F"
C        0.00470000       1.49920000      -0.01320000
C       -0.00380000      -0.00360000       0.02930000
N        0.05210000      -0.63930000      -1.14680000
C        0.04490000      -1.97800000      -1.11840000
N       -0.01300000      -2.75480000      -0.02440000
C       -0.06810000      -2.10580000       1.13690000
C       -0.06660000      -0.71930000       1.22580000
C        0.10510000      -2.65090000      -2.38380000
C        0.15550000      -3.21570000      -3.44390000
H        0.91130000       1.85490000      -0.51250000
H       -0.84450000       1.86250000      -0.60010000
H       -0.04330000       1.93400000       0.98750000
H       -0.11540000      -2.72270000       2.03180000
H       -0.11220000      -0.21620000       2.18440000
H        0.20010000      -3.71490000      -4.38040000
