16
Properties=species:S:1:pos:R:3 gdb_71215=T pbc="F F F"
O       -0.00290000       1.39730000       0.03020000
C       -0.03420000       0.02240000       0.08970000
C        0.44830000      -0.82460000       1.30920000
C       -0.40360000      -1.93180000       0.65370000
C       -0.01490000      -2.07410000      -0.87690000
N       -1.41930000      -1.65840000      -1.22570000
C       -1.35540000      -0.87810000       0.03700000
C        0.69000000      -0.72930000      -1.02530000
O        1.48670000      -0.28420000      -1.80870000
H        0.63480000       1.63150000      -0.66090000
H        1.52450000      -0.96960000       1.44230000
H       -0.00400000      -0.48590000       2.24490000
H       -0.74990000      -2.82330000       1.16820000
H        0.39290000      -2.96940000      -1.34160000
H       -1.48540000      -1.10400000      -2.08230000
H       -2.27220000      -0.49840000       0.48580000
