16
Properties=species:S:1:pos:R:3 gdb_97991=T pbc="F F F"
O        0.10450000       0.91430000       0.98780000
C       -0.07010000       0.12560000      -0.18100000
C       -1.41150000      -0.44180000      -0.19550000
C       -2.51120000      -0.92750000      -0.22410000
C       -3.85230000      -1.48170000      -0.25890000
O       -3.81940000      -2.85680000       0.11190000
C       -5.10540000      -3.42520000       0.10400000
C       -5.00820000      -4.83930000       0.47420000
N       -4.96790000      -5.95670000       0.76120000
H        1.00710000       1.24890000       0.97680000
H        0.07420000       0.72450000      -1.09520000
H        0.65850000      -0.70010000      -0.22390000
H       -4.50690000      -0.92000000       0.42870000
H       -4.28300000      -1.37530000      -1.26900000
H       -5.77880000      -2.92060000       0.81680000
H       -5.57630000      -3.35520000      -0.89100000
