14
Properties=species:S:1:pos:R:3 gdb_28980=T pbc="F F F"
N       -0.00450000       1.38760000       0.13210000
C        0.00680000       0.01430000       0.03930000
C       -1.17030000      -0.74840000       0.02180000
N       -1.17490000      -2.07450000      -0.01100000
C        0.02160000      -2.67300000      -0.02830000
N        1.20440000      -2.07180000      -0.02550000
C        1.20740000      -0.73090000       0.00500000
C        2.45890000      -0.04440000      -0.00360000
C        3.47920000       0.59650000      -0.01710000
H        0.85210000       1.85410000      -0.12820000
H       -0.84130000       1.85640000      -0.17860000
H       -2.13850000      -0.24850000       0.03630000
H        0.02500000      -3.75890000      -0.05070000
H        4.39940000       1.12730000      -0.02150000
