15
Properties=species:S:1:pos:R:3 gdb_6682=T pbc="F F F"
N       -0.17900000       1.30370000      -0.18970000
C        0.07440000      -0.02990000      -0.04840000
O        1.16750000      -0.54360000      -0.04430000
O       -1.09770000      -0.71290000       0.05270000
C       -0.95370000      -2.13300000       0.17090000
C       -2.35890000      -2.72560000       0.20410000
C       -2.33540000      -4.23700000       0.11920000
O       -2.89850000      -4.97520000       0.88390000
H        0.60600000       1.92120000      -0.07570000
H       -1.09540000       1.65360000       0.03170000
H       -0.37560000      -2.51350000      -0.67810000
H       -0.39430000      -2.37080000       1.08130000
H       -2.90380000      -2.42470000       1.10200000
H       -2.90710000      -2.35550000      -0.67400000
H       -1.74940000      -4.64030000      -0.73970000
