19
Properties=species:S:1:pos:R:3 gdb_22363=T pbc="F F F"
C        0.07050000       1.53100000      -0.00650000
C        0.00660000       0.00230000       0.05220000
N        0.70730000      -0.64130000      -1.07740000
C        1.85620000      -1.25930000      -0.60120000
C        2.82950000      -1.83510000      -1.57530000
C        1.90180000      -1.28680000       0.75450000
C        0.75090000      -0.56980000       1.25780000
N        0.30750000      -0.36650000       2.44300000
O        1.15080000      -0.97660000       3.40150000
H        1.11010000       1.87310000      -0.02610000
H       -0.44440000       1.91560000      -0.89410000
H       -0.41050000       1.94810000       0.88210000
H       -1.04130000      -0.31620000       0.06440000
H        0.79170000      -0.09830000      -1.92610000
H        3.23500000      -1.05650000      -2.23400000
H        3.66360000      -2.31080000      -1.05700000
H        2.34370000      -2.57830000      -2.21740000
H        2.63740000      -1.78760000       1.36140000
H        0.69770000      -0.76760000       4.22420000
