21
Properties=species:S:1:pos:R:3 gdb_120152=T pbc="F F F"
C       -0.66210000       1.48810000      -0.16070000
O       -0.52600000       0.08960000      -0.21000000
C        0.38850000      -0.33530000      -1.20350000
C        0.41110000      -1.84300000      -1.17330000
C       -0.35400000      -2.70870000      -2.11900000
O       -0.38120000      -2.14400000      -3.43440000
C        1.05530000      -2.37360000      -3.57450000
C        1.83270000      -1.21660000      -4.16840000
C        1.16100000      -2.78390000      -2.10510000
H        0.29350000       1.98610000       0.07230000
H       -1.03580000       1.89810000      -1.11260000
H       -1.38070000       1.72040000       0.62930000
H        0.07170000       0.02140000      -2.19380000
H        1.39060000       0.07990000      -0.99740000
H        0.40890000      -2.23290000      -0.15700000
H       -1.13030000      -3.41870000      -1.85860000
H        1.19170000      -3.26390000      -4.20440000
H        1.78550000      -0.31920000      -3.54910000
H        2.88440000      -1.50160000      -4.28220000
H        1.44150000      -0.97280000      -5.16160000
H        1.81920000      -3.55480000      -1.72660000
