17
Properties=species:S:1:pos:R:3 gdb_7067=T pbc="F F F"
C        0.02880000       1.59640000      -0.01580000
C       -0.02980000       0.06610000      -0.02640000
C        0.66540000      -0.49850000      -1.28440000
C        0.70570000      -1.95550000      -1.33130000
C        0.74670000      -3.15710000      -1.33100000
N        0.60250000      -0.50560000       1.16360000
C        0.06660000      -0.37950000       2.40660000
O       -0.88090000       0.32320000       2.69320000
H        1.06750000       1.94340000      -0.00210000
H       -0.46140000       2.00040000      -0.90760000
H       -0.48150000       1.97820000       0.86880000
H       -1.08220000      -0.24500000      -0.03980000
H        0.14240000      -0.11000000      -2.16530000
H        1.68860000      -0.10220000      -1.33420000
H        0.77490000      -4.21860000      -1.35340000
H        1.25170000      -1.26530000       1.02020000
H        0.61160000      -0.99110000       3.15380000
