19
Properties=species:S:1:pos:R:3 gdb_94370=T pbc="F F F"
C       -0.36220000       1.41230000       0.01250000
C        0.03360000      -0.05460000      -0.06540000
C        1.35380000      -0.38970000      -0.79400000
O        1.93040000      -0.94020000       0.41300000
C        0.73070000      -0.68550000       1.16030000
C        0.95390000      -0.00300000       2.55510000
C        0.31640000      -1.23740000       3.20310000
O       -0.99120000      -1.37850000       2.62710000
C        0.13350000      -1.89550000       1.90150000
H        0.47290000       2.03230000       0.35640000
H       -0.67180000       1.78420000      -0.97020000
H       -1.19820000       1.55560000       0.70410000
H       -0.81430000      -0.65540000      -0.40570000
H        1.29290000      -1.13710000      -1.59380000
H        1.92350000       0.47570000      -1.15530000
H        2.02740000       0.07880000       2.74350000
H        0.46010000       0.95110000       2.75260000
H        0.47010000      -1.65870000       4.18920000
H        0.12310000      -2.94020000       1.61170000
