20
Properties=species:S:1:pos:R:3 gdb_12365=T pbc="F F F"
C       -0.02250000       1.57560000       0.00650000
C        0.04280000       0.04700000      -0.00670000
C        0.73710000      -0.50420000      -1.26080000
C        0.64360000      -2.03460000      -1.31560000
C        0.95250000      -2.66640000       0.01570000
C        0.97650000      -1.99100000       1.16600000
C        0.72660000      -0.50750000       1.26210000
O        1.94690000       0.17840000       1.57920000
H        0.98210000       2.00640000       0.02240000
H       -0.54870000       1.95120000      -0.87710000
H       -0.55000000       1.94200000       0.89390000
H       -0.98490000      -0.34620000       0.00400000
H        0.30170000      -0.06340000      -2.16400000
H        1.79330000      -0.20010000      -1.24870000
H       -0.36690000      -2.33730000      -1.63080000
H        1.31780000      -2.43690000      -2.08210000
H        1.15410000      -3.73580000       0.01730000
H        1.22850000      -2.49690000       2.09480000
H        0.07660000      -0.29980000       2.12150000
H        2.63900000      -0.20970000       1.03380000
