19
Properties=species:S:1:pos:R:3 gdb_90750=T pbc="F F F"
C       -0.03590000       1.53000000       0.03710000
N       -0.04870000       0.08680000       0.10120000
C       -1.30070000      -0.60070000       0.47900000
C       -0.45910000      -1.60440000       1.30450000
C        0.69960000      -0.59020000       1.17930000
C        1.89720000      -1.40820000       0.70620000
O        1.35260000      -2.62540000       0.17170000
C        0.04210000      -2.79840000       0.52520000
N       -0.64930000      -3.81360000       0.23240000
H        0.97940000       1.88610000      -0.16810000
H       -0.67900000       1.86930000      -0.78150000
H       -0.38720000       2.01190000       0.96980000
H       -1.95270000       0.00730000       1.12580000
H       -1.88620000      -1.00040000      -0.35400000
H       -0.83990000      -1.88870000       2.28330000
H        0.91350000       0.03740000       2.05430000
H        2.45910000      -0.90850000      -0.08750000
H        2.57630000      -1.65700000       1.53130000
H       -0.09280000      -4.48570000      -0.29880000
