17
Properties=species:S:1:pos:R:3 gdb_57139=T pbc="F F F"
O       -0.32780000       1.34550000       0.03340000
C       -0.11320000      -0.06360000       0.03130000
C        0.62120000      -0.49280000      -1.16120000
C        1.25210000      -0.83130000      -2.13770000
C        1.95940000      -1.21160000      -3.23600000
C        2.58780000      -1.54860000      -4.21050000
C        0.57390000      -0.55870000       1.30520000
C        1.62270000       0.27210000       1.99260000
C        0.26200000       0.09310000       2.62360000
H        0.48700000       1.76590000      -0.26180000
H       -1.12080000      -0.49900000      -0.00480000
H        3.13920000      -1.84580000      -5.06770000
H        0.72580000      -1.63400000       1.30790000
H        2.47530000      -0.23820000       2.42560000
H        1.85060000       1.25180000       1.58680000
H       -0.40130000       0.95000000       2.60410000
H        0.17170000      -0.53940000       3.49950000
