17
Properties=species:S:1:pos:R:3 gdb_84288=T pbc="F F F"
O       -0.01390000       1.40390000       0.23570000
C        0.05780000       0.01060000      -0.03010000
C        0.67180000      -0.71100000       1.17460000
C       -0.10280000      -1.72680000       1.57860000
C       -0.83020000      -1.67770000       2.89900000
O       -1.92540000      -0.80450000       2.47790000
C       -2.18960000      -1.08180000       1.10360000
C       -1.29700000      -0.68310000      -0.13240000
C       -1.19240000      -2.02040000       0.55320000
H       -0.60480000       1.51170000       0.99130000
H        0.61650000      -0.06730000      -0.97060000
H        1.38760000      -0.18220000       1.79600000
H       -1.23880000      -2.63130000       3.25280000
H       -0.28790000      -1.17570000       3.70130000
H       -3.25420000      -1.13430000       0.90160000
H       -1.86600000      -0.57130000      -1.05150000
H       -1.36040000      -2.99970000       0.12020000
