20
Properties=species:S:1:pos:R:3 gdb_120527=T pbc="F F F"
O       -0.14120000       1.56080000       0.07050000
C        0.00510000       0.15000000       0.05100000
C       -1.38430000      -0.46030000      -0.09430000
C       -1.36990000      -1.98120000      -0.11170000
C       -1.04970000      -2.75250000       1.20180000
C       -2.18370000      -3.77370000       0.85210000
C       -2.72900000      -2.73020000      -0.18030000
C       -1.69720000      -5.00220000       0.24290000
N       -1.30350000      -5.97290000      -0.24790000
H        0.73170000       1.95420000       0.15910000
H        0.64110000      -0.17590000      -0.78840000
H        0.47890000      -0.21470000       0.97730000
H       -2.01210000      -0.10060000       0.73120000
H       -1.83510000      -0.08010000      -1.01930000
H       -0.71540000      -2.34100000      -0.91390000
H       -0.04580000      -3.15830000       1.33310000
H       -1.32190000      -2.17570000       2.09050000
H       -2.86000000      -4.03370000       1.66970000
H       -3.53970000      -2.14640000       0.26450000
H       -3.05470000      -3.11480000      -1.14760000
