16
Properties=species:S:1:pos:R:3 gdb_80320=T pbc="F F F"
O       -0.00720000       1.41990000       0.06960000
C       -0.06660000       0.03370000       0.00710000
C       -1.35420000      -0.73360000       0.01090000
C       -2.61840000       0.04880000      -0.34190000
C       -2.37320000       0.49970000      -1.77740000
C       -1.21120000       0.01930000      -2.26240000
C       -0.45890000      -0.74630000      -1.24700000
C       -3.28620000       1.32650000      -2.48410000
N       -4.05380000       1.99790000      -3.03460000
H       -0.48500000       1.78880000      -0.68310000
H        0.75220000      -0.39770000       0.57400000
H       -1.44310000      -1.61040000       0.64120000
H       -3.52220000      -0.56560000      -0.27390000
H       -2.76160000       0.90740000       0.32550000
H       -0.84950000       0.19350000      -3.26870000
H        0.14590000      -1.59370000      -1.54840000
