20
Properties=species:S:1:pos:R:3 gdb_119662=T pbc="F F F"
C        0.59700000       1.40080000      -0.76180000
O        0.74030000       0.03760000      -1.08400000
C        0.16070000      -0.81640000      -0.12250000
C        0.39180000      -2.25230000      -0.48980000
C       -0.20540000      -3.48350000       0.20520000
C        0.78040000      -4.02100000      -0.83120000
C        0.44260000      -2.93610000      -1.89700000
C        1.92900000      -2.61260000      -2.00010000
N        1.81160000      -2.90730000      -0.50390000
H       -0.46290000       1.69220000      -0.68770000
H        1.08830000       1.64850000       0.19200000
H        1.06680000       1.97700000      -1.56230000
H        0.58870000      -0.62910000       0.87740000
H       -0.92670000      -0.63440000      -0.05030000
H        0.07170000      -3.62640000       1.25370000
H       -1.26680000      -3.68100000       0.03290000
H        1.12220000      -5.04140000      -1.01140000
H       -0.34530000      -2.95960000      -2.65780000
H        2.56560000      -3.33470000      -2.52320000
H        2.22300000      -1.58700000      -2.22370000
