15
Properties=species:S:1:pos:R:3 gdb_78585=T pbc="F F F"
O        0.03860000       1.48600000      -0.11680000
C        0.06540000       0.08870000      -0.03710000
C        0.00260000      -0.57310000       1.35010000
C       -1.50220000      -0.22630000       1.55150000
C       -1.76740000      -1.70880000       1.83540000
C       -3.06790000      -2.27470000       1.50250000
N       -4.10860000      -2.70660000       1.24380000
N       -0.70170000      -1.81580000       0.73360000
C       -1.31260000      -0.55950000       0.04050000
H        0.94260000       1.81420000      -0.08740000
H        0.76340000      -0.37670000      -0.74460000
H        0.76560000      -0.70240000       2.11980000
H       -1.95160000       0.65690000       2.00720000
H       -1.42030000      -2.10710000       2.79410000
H       -2.08260000      -0.66740000      -0.72250000
