15
Properties=species:S:1:pos:R:3 gdb_67933=T pbc="F F F"
C       -0.12580000       1.51740000       0.11490000
C        0.04000000       0.03710000       0.08250000
O       -1.17540000      -0.77120000      -0.01600000
C       -0.66640000      -1.66010000       0.92990000
O       -1.23130000      -2.56430000       1.44710000
C        0.66880000      -0.96710000       1.00850000
C        1.19800000      -0.75780000      -0.43970000
C        1.09850000      -1.80370000      -1.50140000
O        1.97360000      -1.98920000      -2.30920000
H        0.83690000       2.00260000       0.29520000
H       -0.51790000       1.87870000      -0.84090000
H       -0.82290000       1.80670000       0.90640000
H        1.31500000      -0.87340000       1.86890000
H        2.14260000      -0.22010000      -0.45930000
H        0.16580000      -2.40110000      -1.50480000
