19
Properties=species:S:1:pos:R:3 gdb_40636=T pbc="F F F"
C       -0.58000000       1.39010000      -0.21750000
N        0.76860000       1.51660000       0.35340000
C        0.20970000       0.17080000       0.09770000
C       -0.09830000      -0.63670000       1.31500000
C       -0.37690000      -2.10970000       1.28660000
C        0.07160000      -2.88010000       0.09280000
C        1.39960000      -2.82450000      -0.02050000
C        1.99030000      -2.01180000       1.11100000
N        0.84480000      -1.57840000       1.94450000
H       -1.38440000       1.69860000       0.44510000
H       -0.73890000       1.63810000      -1.26380000
H        1.43320000       1.75980000      -0.37620000
H        0.59960000      -0.37720000      -0.75410000
H       -0.62830000      -0.05670000       2.06920000
H       -1.15650000      -2.52110000       1.92450000
H       -0.60910000      -3.40360000      -0.56710000
H        1.99470000      -3.26690000      -0.81140000
H        2.67510000      -2.60650000       1.72990000
H        2.56130000      -1.14220000       0.75970000
