17
Properties=species:S:1:pos:R:3 gdb_50510=T pbc="F F F"
O       -0.22140000       0.12250000      -0.15780000
C        0.02660000       1.28910000      -0.00410000
C        1.41320000       1.89380000      -0.01980000
C        1.51130000       3.00450000      -1.10150000
O        1.31420000       4.24140000      -0.42800000
C        1.92940000       4.11420000       0.84470000
C        1.69970000       2.66330000       1.30210000
C        3.41040000       4.49320000       0.75110000
O        4.28350000       4.01620000       1.42660000
H       -0.78550000       2.03720000       0.16160000
H        2.13110000       1.09230000      -0.20170000
H        2.50020000       2.96690000      -1.58150000
H        0.74970000       2.93180000      -1.88330000
H        1.45760000       4.85230000       1.50640000
H        0.84580000       2.60790000       1.98300000
H        2.57580000       2.27700000       1.82510000
H        3.61070000       5.27900000      -0.01150000
