14
Properties=species:S:1:pos:R:3 gdb_130212=T pbc="F F F"
N        0.00240000       1.34270000       0.15010000
C       -0.03090000      -0.02400000       0.08360000
N       -1.18580000      -0.65970000       0.06310000
N       -1.12240000      -1.98350000       0.04430000
N       -0.05330000      -2.76690000       0.04600000
C        1.11430000      -2.15490000       0.06640000
N        2.27280000      -2.88200000       0.11600000
C        1.24780000      -0.70990000       0.06260000
O        2.33750000      -0.12390000       0.02250000
H        0.90100000       1.73130000      -0.09780000
H       -0.81400000       1.84060000      -0.16610000
H       -2.00900000      -2.45980000       0.02380000
H        2.23540000      -3.83350000      -0.21220000
H        3.09110000      -2.34390000      -0.13080000
