14
Properties=species:S:1:pos:R:3 gdb_25382=T pbc="F F F"
N       -0.10250000       1.29280000      -0.32870000
C        0.00750000       0.06570000       0.01940000
N       -1.12610000      -0.66510000       0.35950000
C       -1.07870000      -1.97240000       0.73820000
C       -2.36100000      -2.61730000       1.06960000
O       -3.41880000      -2.03120000       1.01480000
C        0.11700000      -2.62200000       0.79650000
N        1.29710000      -1.98750000       0.47940000
C        1.23400000      -0.74590000       0.12180000
H        0.81250000       1.68440000      -0.54510000
H       -2.03130000      -0.21040000       0.32640000
H       -2.28410000      -3.67920000       1.37300000
H        0.17650000      -3.66130000       1.09510000
H        2.16630000      -0.24110000      -0.12970000
