27
Properties=species:S:1:pos:R:3 gdb_123142=T pbc="F F F"
C       -0.02020000       1.56220000      -0.02430000
C        0.01480000       0.03150000      -0.02640000
C        0.72010000      -0.54690000      -1.25700000
C        0.75550000      -2.06910000      -1.25900000
O        1.41460000      -2.50900000      -2.42640000
C        1.50510000      -3.91360000      -2.52810000
C        2.19020000      -4.28230000      -3.84380000
C        2.42280000      -5.79620000      -3.91510000
C        1.38850000      -3.77360000      -5.04800000
H        0.99220000       1.98060000      -0.03780000
H       -0.54710000       1.94660000      -0.90470000
H       -0.52900000       1.94900000       0.86410000
H        0.51730000      -0.32340000       0.88330000
H       -1.01090000      -0.35750000       0.02310000
H        0.21820000      -0.20840000      -2.17200000
H        1.75000000      -0.17300000      -1.31120000
H        1.27850000      -2.44190000      -0.36040000
H       -0.27010000      -2.47720000      -1.22190000
H        2.07490000      -4.32090000      -1.67460000
H        0.49750000      -4.36690000      -2.48740000
H        3.16640000      -3.77890000      -3.84250000
H        1.47180000      -6.34230000      -3.90080000
H        2.94360000      -6.06790000      -4.83850000
H        3.02570000      -6.15320000      -3.07320000
H        1.91990000      -3.96730000      -5.98540000
H        0.41510000      -4.27620000      -5.10730000
H        1.20880000      -2.69930000      -4.96610000
