19
Properties=species:S:1:pos:R:3 gdb_84890=T pbc="F F F"
O        0.05130000       1.47380000      -0.07460000
C       -0.01650000       0.04460000       0.00740000
C        0.74700000      -0.46500000       1.20120000
C        0.17010000      -1.07160000       2.24030000
C       -1.30870000      -1.34040000       2.33880000
C       -2.11380000      -0.45180000       1.37770000
C       -1.45950000      -0.44950000       0.01510000
C       -2.23830000      -0.38530000      -1.22150000
O       -1.68940000      -1.63100000      -0.77290000
H       -0.05020000       1.81660000       0.81970000
H        0.44600000      -0.31760000      -0.91780000
H        1.81960000      -0.28910000       1.18940000
H        0.78760000      -1.41500000       3.06740000
H       -1.49940000      -2.39720000       2.10570000
H       -1.64850000      -1.19440000       3.37060000
H       -3.14910000      -0.79490000       1.30020000
H       -2.13560000       0.57740000       1.75960000
H       -3.32400000      -0.30960000      -1.17140000
H       -1.78580000       0.03010000      -2.12080000
