18
Properties=species:S:1:pos:R:3 gdb_17264=T pbc="F F F"
O       -0.11030000       1.33060000       0.00940000
C        0.01370000      -0.04400000      -0.00130000
C        0.65520000      -0.96910000      -1.08960000
C        0.03760000      -1.91750000      -0.01660000
C        0.64380000      -0.98690000       1.07830000
C       -1.19200000      -0.98850000      -0.01540000
C       -2.46910000      -0.97960000       0.74420000
C       -2.46110000      -0.96700000      -0.78810000
H        0.77030000       1.72040000       0.01690000
H        0.18080000      -0.96570000      -2.07320000
H        1.74740000      -0.96370000      -1.15670000
H        0.04490000      -3.00460000      -0.02550000
H        1.73530000      -0.98280000       1.15690000
H        0.15920000      -0.99970000       2.05680000
H       -2.79560000      -1.89000000       1.23760000
H       -2.76480000      -0.06580000       1.25010000
H       -2.75150000      -0.04500000      -1.28200000
H       -2.78240000      -1.86910000      -1.29980000
