17
Properties=species:S:1:pos:R:3 gdb_7109=T pbc="F F F"
C       -0.11750000       1.64810000       0.01280000
C        0.02810000       0.12480000       0.00320000
C       -1.32120000      -0.59320000       0.01140000
C       -1.18430000      -2.11330000       0.00110000
O       -0.13220000      -2.69620000      -0.01320000
N       -2.43070000      -2.76920000       0.01080000
C       -2.68400000      -4.13810000       0.00570000
O       -1.87120000      -5.01930000      -0.00850000
H        0.86200000       2.13500000       0.00670000
H       -0.67020000       2.00370000      -0.86430000
H       -0.65430000       1.99410000       0.90350000
H        0.59520000      -0.19720000      -0.87610000
H        0.61080000      -0.20670000       0.86870000
H       -1.90920000      -0.30400000       0.89430000
H       -1.92510000      -0.29390000      -0.85750000
H       -3.25020000      -2.17900000       0.02290000
H       -3.77940000      -4.31900000       0.01580000
