15
Properties=species:S:1:pos:R:3 gdb_45126=T pbc="F F F"
O       -0.02930000      -0.06820000      -0.11000000
C       -0.01060000       1.13950000      -0.05900000
N       -1.14780000       1.89540000       0.04510000
C       -1.22290000       3.32000000       0.09920000
C       -0.78640000       4.08450000       1.33640000
C        0.07520000       4.06150000       0.08630000
N        1.26330000       3.27270000       0.02110000
C        1.33540000       1.90840000      -0.07230000
O        2.38430000       1.31060000      -0.13370000
H       -2.00120000       1.35950000       0.12480000
H       -2.03920000       3.73100000      -0.48630000
H       -1.30790000       5.00170000       1.58610000
H       -0.44080000       3.49420000       2.17750000
H        0.12700000       4.96840000      -0.50780000
H        2.15950000       3.73630000       0.08370000
