21
Properties=species:S:1:pos:R:3 gdb_101737=T pbc="F F F"
C        0.31840000       1.39860000      -0.28240000
C        0.04860000      -0.07680000       0.01000000
C        0.63960000      -0.52640000       1.34870000
O        0.05250000       0.16190000       2.43540000
O       -1.35740000      -0.33680000       0.13140000
C       -2.05260000      -0.50280000      -1.07240000
C       -2.03070000      -1.90480000      -1.73360000
O       -3.46840000      -1.99350000      -1.65550000
C       -3.55050000      -0.78310000      -0.87510000
H        1.38920000       1.56390000      -0.43910000
H       -0.20470000       1.73610000      -1.18150000
H       -0.00580000       2.00590000       0.56570000
H        0.47110000      -0.70830000      -0.78690000
H        0.50720000      -1.61490000       1.44530000
H        1.71280000      -0.31110000       1.37560000
H       -0.89980000       0.04150000       2.33970000
H       -1.84100000       0.31300000      -1.77380000
H       -1.67200000      -1.97380000      -2.76690000
H       -1.53140000      -2.66360000      -1.11610000
H       -3.80520000      -0.97710000       0.17470000
H       -4.25800000      -0.06300000      -1.29980000
