21
Properties=species:S:1:pos:R:3 gdb_80174=T pbc="F F F"
C       -0.36130000       1.43470000      -0.14480000
C       -0.02060000      -0.03590000      -0.00580000
C        1.33090000      -0.62450000      -0.34610000
C        2.52430000       0.31080000      -0.41550000
C        2.57900000       1.00660000       0.95300000
O        3.18360000       2.01760000       1.20450000
C        1.72820000       0.20860000       1.95680000
C        1.08650000       1.07880000       3.03880000
C        0.82160000      -0.65320000       1.09270000
H        0.45350000       2.09960000       0.15130000
H       -0.60930000       1.67130000      -1.18570000
H       -1.23200000       1.69280000       0.46740000
H       -0.84580000      -0.68030000      -0.30120000
H        1.36150000      -1.53250000      -0.93760000
H        3.45630000      -0.25390000      -0.54800000
H        2.49110000       1.05790000      -1.21420000
H        2.44820000      -0.46840000       2.44600000
H        0.30510000       1.71920000       2.62130000
H        0.63470000       0.46190000       3.82100000
H        1.84300000       1.72360000       3.49420000
H        0.46700000      -1.58390000       1.52220000
