18
Properties=species:S:1:pos:R:3 gdb_124752=T pbc="F F F"
C        0.13700000       1.46120000      -0.22310000
C        0.03930000      -0.03040000       0.12640000
O        0.60870000      -0.28330000       1.40670000
C       -1.37050000      -0.56050000       0.04450000
C       -2.22190000      -0.59540000      -1.05100000
N       -2.07070000      -0.12520000      -2.35910000
N       -3.38000000      -1.15630000      -0.62150000
N       -3.35170000      -1.50610000       0.69180000
C       -2.13600000      -1.14820000       1.08110000
H        1.17690000       1.79500000      -0.16420000
H       -0.24390000       1.66930000      -1.22830000
H       -0.46460000       2.05240000       0.47710000
H        0.68700000      -0.59030000      -0.56390000
H        0.12720000       0.25570000       2.04470000
H       -1.09790000      -0.04660000      -2.62440000
H       -2.55210000      -0.69280000      -3.04640000
H       -4.22630000      -1.29470000      -1.14700000
H       -1.82110000      -1.33710000       2.09670000
