18
Properties=species:S:1:pos:R:3 gdb_43166=T pbc="F F F"
O        0.00780000       0.04120000      -0.01490000
C       -0.01120000       1.24060000       0.02020000
C       -1.21570000       2.17850000       0.05290000
C       -0.72300000       3.30740000       0.98680000
N        0.75120000       3.11790000       1.09600000
C        1.15800000       2.22640000      -0.00390000
C        1.11370000       2.88200000      -1.38260000
C       -0.05310000       3.10540000      -1.99330000
C       -1.37990000       2.67950000      -1.40890000
H       -2.12250000       1.68270000       0.40050000
H       -0.99090000       4.29190000       0.58190000
H       -1.17510000       3.22560000       1.98120000
H        1.23590000       4.00680000       1.05160000
H        2.11790000       1.75130000       0.20210000
H        2.05190000       3.18270000      -1.84110000
H       -0.07850000       3.59870000      -2.96200000
H       -1.81470000       1.87840000      -2.02340000
H       -2.09830000       3.50930000      -1.44140000
