22
Properties=species:S:1:pos:R:3 gdb_6846=T pbc="F F F"
C       -0.15030000       1.57060000       0.03500000
C       -0.02000000       0.03560000       0.00330000
C       -1.42490000      -0.58550000       0.00420000
C        0.74270000      -0.41970000      -1.26110000
C        2.17830000       0.12230000      -1.32850000
C        2.88570000       0.00900000      -0.00470000
C        2.25280000      -0.24910000       1.13920000
C        0.76270000      -0.45090000       1.24620000
H        0.82200000       2.06060000       0.13580000
H       -0.62530000       1.94330000      -0.87960000
H       -0.76860000       1.88730000       0.88230000
H       -2.01790000      -0.22300000      -0.84320000
H       -1.37610000      -1.67790000      -0.06510000
H       -1.96800000      -0.33250000       0.92200000
H        0.77890000      -1.51700000      -1.26420000
H        0.18550000      -0.12350000      -2.15830000
H        2.74250000      -0.41810000      -2.09940000
H        2.17910000       1.17220000      -1.65690000
H        3.96360000       0.15440000      -0.00460000
H        2.82260000      -0.33030000       2.06240000
H        0.38400000       0.06080000       2.14170000
H        0.55570000      -1.51840000       1.41670000
