17
Properties=species:S:1:pos:R:3 gdb_98827=T pbc="F F F"
O        0.13700000       1.36900000       0.28140000
C        0.09690000      -0.02360000       0.15480000
C       -1.34730000      -0.49050000       0.04120000
O       -2.27230000       0.30320000       0.06470000
N       -1.57640000      -1.83620000      -0.08970000
C       -2.85510000      -2.55350000      -0.21890000
C       -2.03150000      -3.87310000      -0.29620000
C       -0.78310000      -2.99240000      -0.15380000
N        0.47340000      -3.08440000      -0.09880000
H       -0.79020000       1.65380000       0.25910000
H        0.65130000      -0.37100000      -0.72950000
H        0.56530000      -0.52640000       1.01360000
H       -3.49910000      -2.44380000       0.65610000
H       -3.40950000      -2.28380000      -1.12010000
H       -2.18670000      -4.57070000       0.52870000
H       -2.09680000      -4.41020000      -1.24400000
H        0.77560000      -4.05440000      -0.17080000
