22
Properties=species:S:1:pos:R:3 gdb_111318=T pbc="F F F"
C        0.32810000       1.30510000       0.27130000
O       -0.20530000       0.05180000      -0.09710000
C        0.46520000      -0.53720000      -1.18210000
C        1.85990000      -1.11530000      -0.93420000
C        1.80320000      -2.17120000       0.09480000
N        1.40920000      -2.52770000      -1.27690000
C        0.00420000      -1.98830000      -1.52200000
C       -1.09510000      -2.60540000      -0.66890000
C       -0.29070000      -2.16000000      -3.00840000
H        1.37610000       1.22380000       0.59540000
H        0.27790000       2.02600000      -0.56000000
H       -0.27060000       1.68270000       1.10350000
H        0.43320000       0.13010000      -2.05600000
H        2.79290000      -0.71610000      -1.31850000
H        2.74300000      -2.62950000       0.38750000
H        1.06090000      -2.11310000       0.88410000
H       -0.97350000      -2.39620000       0.39460000
H       -2.07140000      -2.21060000      -0.96620000
H       -1.10580000      -3.69090000      -0.81570000
H       -0.41070000      -3.22000000      -3.25220000
H       -1.21040000      -1.63250000      -3.28280000
H        0.53060000      -1.76890000      -3.61630000
