15
Properties=species:S:1:pos:R:3 gdb_44186=T pbc="F F F"
O        0.20190000       0.09360000      -0.75370000
C        0.05250000       1.16110000      -0.24480000
C       -1.14760000       1.97400000       0.29060000
N       -0.21320000       3.05970000       0.72530000
C        0.32470000       2.82390000       2.11070000
C        1.65590000       2.23940000       1.54100000
C        0.98690000       2.32340000       0.15130000
C        0.44000000       4.03850000       2.91260000
N        0.55440000       4.98950000       3.55870000
H       -1.82370000       2.31400000      -0.50120000
H       -1.74470000       1.50960000       1.08280000
H       -0.26210000       2.09240000       2.67870000
H        2.50360000       2.91560000       1.64980000
H        1.93590000       1.24790000       1.89780000
H        1.54580000       2.79090000      -0.66280000
