25
Properties=species:S:1:pos:R:3 gdb_121116=T pbc="F F F"
C        0.49170000       1.50970000       0.38080000
C        0.29560000       0.03320000       0.07650000
O        0.62010000      -0.70670000       1.23500000
C        0.43060000      -2.11310000       1.11510000
C        1.61300000      -2.80360000       0.39360000
C        2.58720000      -3.14690000       1.52740000
C        1.65640000      -3.65290000       2.64440000
C        2.29190000      -3.71640000       4.03190000
C        0.43700000      -2.70260000       2.54810000
H        1.53230000       1.71060000       0.65170000
H        0.23660000       2.11780000      -0.49230000
H       -0.14350000       1.81560000       1.21690000
H       -0.74970000      -0.16580000      -0.21670000
H        0.92690000      -0.26500000      -0.77630000
H       -0.52080000      -2.29700000       0.59450000
H        1.25890000      -3.72470000      -0.08630000
H        2.04480000      -2.17470000      -0.38950000
H        3.35240000      -3.87520000       1.24240000
H        3.10160000      -2.23650000       1.86070000
H        1.32880000      -4.66520000       2.36770000
H        2.64240000      -2.72590000       4.34500000
H        1.57850000      -4.06920000       4.78470000
H        3.15150000      -4.39530000       4.04650000
H        0.54610000      -1.86430000       3.24340000
H       -0.50190000      -3.20690000       2.79270000
