21
Properties=species:S:1:pos:R:3 gdb_90480=T pbc="F F F"
C       -0.35280000       1.35290000      -0.43110000
C        0.15200000      -0.07310000      -0.27830000
C        1.36690000      -0.58260000      -1.09600000
C        1.98780000      -0.99020000       0.24260000
C        2.11500000       0.11480000       1.21940000
C        2.50030000       1.54590000       0.96410000
C        3.93400000       1.93120000       0.99880000
N        3.17700000       2.00860000      -0.26270000
N        0.77930000      -0.49560000       1.03910000
H        0.45460000       2.08360000      -0.50630000
H       -0.95540000       1.43140000      -1.34290000
H       -0.99440000       1.62100000       0.41530000
H       -0.69240000      -0.75620000      -0.40890000
H        1.12840000      -1.43970000      -1.72820000
H        1.90470000       0.15070000      -1.70130000
H        2.42420000      -1.96620000       0.43530000
H        2.49010000      -0.22590000       2.18500000
H        1.79090000       2.27240000       1.35330000
H        4.23240000       2.88640000       1.42100000
H        4.66790000       1.13630000       1.10890000
H        3.42250000       1.20280000      -0.83110000
