15
Properties=species:S:1:pos:R:3 gdb_127742=T pbc="F F F"
C       -0.01950000       1.41740000      -0.02980000
N       -0.01520000      -0.04030000       0.01450000
N       -0.06570000      -0.65770000      -1.16050000
N       -0.06740000      -1.93200000      -1.22130000
C       -0.01510000      -2.67360000      -0.05070000
N       -0.06830000      -4.01600000      -0.27980000
C        0.04930000      -2.09390000       1.18980000
C        0.05060000      -0.67210000       1.29630000
O        0.10030000       0.02240000       2.29670000
H        0.88510000       1.80430000       0.44440000
H       -0.06660000       1.71290000      -1.07660000
H       -0.88020000       1.80120000       0.52220000
H        0.09630000      -4.30860000      -1.22960000
H        0.21240000      -4.64960000       0.44870000
H        0.09440000      -2.67300000       2.10380000
