19
Properties=species:S:1:pos:R:3 gdb_32990=T pbc="F F F"
C       -0.09690000       1.56340000      -0.00700000
C       -0.14660000       0.03860000      -0.12120000
C        0.83380000      -0.51150000      -1.17450000
C        0.81110000      -2.01550000      -1.24830000
N        1.34210000      -2.69390000      -0.22180000
C        1.29340000      -4.02370000      -0.28840000
C        0.72150000      -4.69170000      -1.36800000
N        0.19060000      -4.03030000      -2.39770000
C        0.24070000      -2.70050000      -2.32760000
H        0.90360000       1.90670000       0.27810000
H       -0.35230000       2.04310000      -0.95850000
H       -0.80140000       1.92630000       0.74780000
H        0.09220000      -0.42150000       0.84400000
H       -1.16440000      -0.28340000      -0.37540000
H        0.59740000      -0.08970000      -2.15830000
H        1.84990000      -0.19000000      -0.91740000
H        1.72710000      -4.57580000       0.54220000
H        0.69250000      -5.77750000      -1.40480000
H       -0.18590000      -2.14990000      -3.16330000
