17
Properties=species:S:1:pos:R:3 gdb_126638=T pbc="F F F"
C       -0.10240000       1.54340000       0.01570000
C       -0.07880000       0.01360000      -0.00730000
C        0.74770000      -0.55970000       1.14820000
N        0.78100000      -2.01050000       1.15520000
N       -0.27350000      -2.75900000       1.57230000
N        0.02550000      -3.98860000       1.44980000
N        1.28490000      -4.05790000       0.94390000
C        1.83560000      -2.80620000       0.72690000
O        2.92000000      -2.48330000       0.29440000
H        0.90710000       1.95890000      -0.07380000
H       -0.69860000       1.93680000      -0.81210000
H       -0.53690000       1.92120000       0.94770000
H       -1.09790000      -0.38350000       0.05880000
H        0.34210000      -0.34470000      -0.95370000
H        1.79250000      -0.24350000       1.07570000
H        0.35230000      -0.22540000       2.11240000
H        1.71730000      -4.94980000       0.77390000
