20
Properties=species:S:1:pos:R:3 gdb_62885=T pbc="F F F"
C        0.00240000       1.55020000      -0.04070000
C       -0.08140000       0.02660000      -0.00910000
C       -1.48520000      -0.44800000      -0.37470000
C        1.17380000      -0.72760000      -0.57960000
O        1.97070000      -0.19940000       0.55560000
C        0.69730000      -0.66890000       1.16400000
C        0.85340000      -1.93740000       0.31100000
C        0.24860000      -3.26700000       0.14080000
N        1.64480000      -3.09720000       0.62340000
H        1.00230000       1.89680000       0.21870000
H       -0.25480000       1.92620000      -1.03760000
H       -0.71560000       1.98580000       0.66350000
H       -1.75760000      -0.08490000      -1.37220000
H       -1.59240000      -1.53280000      -0.37020000
H       -2.21690000      -0.03310000       0.32770000
H        1.62280000      -0.68370000      -1.57440000
H        0.58550000      -0.56100000       2.24340000
H       -0.44070000      -3.66780000       0.87960000
H        0.08280000      -3.62820000      -0.87210000
H        2.31520000      -3.29980000      -0.11380000
