14
Properties=species:S:1:pos:R:3 gdb_2477=T pbc="F F F"
O       -0.00290000       0.03440000       0.06670000
C        0.02090000       1.23500000      -0.02490000
N       -1.06150000       2.11600000      -0.12590000
C       -0.41760000       3.44270000       0.02320000
C        0.72100000       3.29900000      -1.01980000
C        1.20390000       2.21810000       0.00240000
C        0.66740000       3.19490000       1.11450000
H       -1.91360000       1.89260000       0.36820000
H       -1.12040000       4.27360000       0.03620000
H        0.43910000       2.97410000      -2.02310000
H        1.38500000       4.16490000      -1.05410000
H        2.19910000       1.78200000       0.00710000
H        1.33050000       4.04700000       1.28180000
H        0.34280000       2.76370000       2.06500000
