21
Properties=species:S:1:pos:R:3 gdb_68870=T pbc="F F F"
C       -0.04850000       1.45760000       0.07530000
C        0.00180000      -0.04730000      -0.00580000
C        1.32450000      -0.75200000      -0.28640000
C        0.63540000      -0.92270000       1.04770000
O        1.17910000      -0.35430000       2.20060000
C       -0.45750000      -2.00010000       1.22490000
C       -1.72490000      -1.07780000       1.28430000
C       -1.32270000      -0.82420000      -0.21440000
C       -0.91230000      -2.32110000      -0.22380000
H        0.83610000       1.85080000       0.58420000
H       -0.09810000       1.91130000      -0.92140000
H       -0.92790000       1.79390000       0.63610000
H        1.42400000      -1.55810000      -1.00390000
H        2.18630000      -0.09140000      -0.25400000
H        1.91240000      -0.90760000       2.48960000
H       -0.26490000      -2.78410000       1.95910000
H       -2.66220000      -1.63010000       1.39450000
H       -1.69290000      -0.23040000       1.97330000
H       -2.02550000      -0.41900000      -0.94400000
H       -0.19010000      -2.68480000      -0.95540000
H       -1.78740000      -2.97480000      -0.22910000
