13
Properties=species:S:1:pos:R:3 gdb_127971=T pbc="F F F"
C        0.15640000       1.45290000       0.10370000
N        0.26470000       0.00870000       0.06760000
C        0.50280000      -0.60990000      -0.99400000
O        0.68170000       0.03430000      -2.21700000
C        0.93250000      -0.71680000      -3.30540000
N        1.03800000      -1.97830000      -3.39990000
O        0.87230000      -2.71420000      -2.20560000
C        0.61030000      -2.11360000      -1.00260000
O        0.48130000      -2.79400000      -0.03330000
H        0.89300000       1.83100000       0.82040000
H        0.29850000       1.95130000      -0.86000000
H       -0.83020000       1.70960000       0.50350000
H        1.05550000      -0.12880000      -4.20690000
