10
Properties=species:S:1:pos:R:3 gdb_133421=T pbc="F F F"
O       -0.00800000       1.31030000       0.00770000
C       -0.05040000      -0.01120000       0.00100000
N       -1.16840000      -0.63180000       0.00410000
C       -1.12630000      -2.01600000      -0.00340000
O       -2.08870000      -2.73990000      -0.00170000
C        0.26510000      -2.57860000      -0.01410000
F        0.37320000      -3.88140000      -0.02150000
N        1.36170000      -1.92500000      -0.01690000
O        1.19750000      -0.53060000      -0.00870000
H        0.91480000       1.60280000       0.00400000
