21
Properties=species:S:1:pos:R:3 gdb_76203=T pbc="F F F"
C       -0.02070000       1.54960000      -0.08670000
C        0.02520000       0.03830000      -0.04070000
C        1.33830000      -0.71900000      -0.19010000
C        1.39680000      -1.99420000      -0.99880000
O        2.52590000       0.03440000      -0.20910000
C        0.64360000      -0.68000000       1.13350000
C        1.18640000      -0.09900000       2.43390000
O        0.66780000      -1.22890000       3.17560000
C        0.10460000      -1.82260000       1.98690000
H        0.92190000       1.97830000       0.26270000
H       -0.19400000       1.90780000      -1.10780000
H       -0.82750000       1.94310000       0.54100000
H       -0.84040000      -0.45910000      -0.47630000
H        1.54150000      -1.77480000      -2.06400000
H        2.22910000      -2.62410000      -0.66810000
H        0.47020000      -2.56790000      -0.90390000
H        2.65120000       0.37320000      -1.10280000
H        2.27750000      -0.02260000       2.49970000
H        0.73620000       0.84640000       2.76430000
H       -0.99010000      -1.89880000       2.04370000
H        0.52180000      -2.81880000       1.78660000
