15
Properties=species:S:1:pos:R:3 gdb_12425=T pbc="F F F"
O        0.03310000      -0.09290000       0.01350000
C       -0.04440000       1.11600000       0.02220000
C       -1.35120000       1.90070000       0.01400000
C       -1.47840000       2.75490000      -1.21910000
C       -0.67870000       3.80720000      -1.45500000
C        0.47230000       4.15470000      -0.65040000
C        1.25120000       3.27990000       0.02000000
N        1.10150000       1.90100000       0.08280000
H       -2.15840000       1.17270000       0.09020000
H       -1.36520000       2.53820000       0.90900000
H       -2.26600000       2.50460000      -1.92270000
H       -0.88570000       4.44720000      -2.30950000
H        0.79120000       5.19210000      -0.63380000
H        2.13630000       3.63720000       0.53760000
H        1.93120000       1.35410000       0.26620000
