20
Properties=species:S:1:pos:R:3 gdb_23198=T pbc="F F F"
C       -0.31470000       1.52660000      -0.03710000
C        0.10070000       0.05320000       0.08080000
C        0.80190000      -0.45300000      -1.15070000
C        0.06490000      -0.95340000      -2.38440000
C        1.02130000      -1.88440000      -1.71090000
C        2.46290000      -1.53350000      -2.12460000
C        2.20930000      -0.14730000      -1.54070000
N        2.92410000       0.85840000      -1.25040000
O        4.24510000       0.68810000      -1.72040000
H        0.56130000       2.15860000      -0.20750000
H       -1.00550000       1.67440000      -0.87380000
H       -0.81160000       1.86690000       0.87660000
H        0.76380000      -0.06980000       0.94600000
H       -0.78190000      -0.57070000       0.26980000
H       -0.98870000      -1.15270000      -2.21220000
H        0.28630000      -0.55290000      -3.37060000
H        0.71040000      -2.81970000      -1.26320000
H        3.23710000      -2.05940000      -1.55870000
H        2.69950000      -1.59900000      -3.19110000
H        4.66860000       1.50060000      -1.42460000
