19
Properties=species:S:1:pos:R:3 gdb_61432=T pbc="F F F"
C        0.58080000       1.39970000       0.11190000
N        0.34270000      -0.02090000      -0.08880000
C        0.48470000      -0.85930000       1.10260000
C       -0.82110000      -1.04450000       1.90290000
O       -1.77180000      -1.72190000       1.26290000
O       -0.95880000      -0.60950000       3.01810000
C       -0.18080000      -0.56380000      -1.22590000
C       -0.14710000       0.26450000      -2.49220000
N       -0.66800000      -1.76180000      -1.17220000
H       -0.95610000      -2.09580000      -2.08500000
H       -1.44780000      -1.94690000       0.34140000
H        1.60490000       1.56770000       0.46520000
H        0.44270000       1.95460000      -0.81370000
H       -0.10720000       1.80830000       0.86250000
H        0.85330000      -1.84010000       0.78640000
H        1.21230000      -0.39090000       1.76660000
H        0.83650000       0.70890000      -2.66760000
H       -0.39810000      -0.36890000      -3.34430000
H       -0.88110000       1.07610000      -2.45350000
