20
Properties=species:S:1:pos:R:3 gdb_70585=T pbc="F F F"
O       -0.00350000       1.37080000       0.11510000
C        0.02340000      -0.02700000      -0.02950000
C       -0.55260000      -0.62320000      -1.28840000
C       -1.31690000      -0.70850000       0.02090000
C       -1.45980000      -2.01190000       0.78620000
C       -0.19520000      -2.89650000       0.74300000
C        1.06700000      -2.12120000       1.10010000
N        1.95390000      -1.73500000      -0.01660000
C        1.17500000      -0.69680000       0.68120000
H        0.66220000       1.73740000      -0.47780000
H       -0.92370000       0.08200000      -2.02390000
H       -0.07400000      -1.50570000      -1.69520000
H       -2.15990000      -0.02930000       0.10520000
H       -1.69670000      -1.77420000       1.83200000
H       -2.31210000      -2.58250000       0.39810000
H       -0.32410000      -3.73710000       1.43200000
H       -0.07280000      -3.32870000      -0.25500000
H        1.54350000      -2.39080000       2.03960000
H        2.92170000      -1.71330000       0.29350000
H        1.70250000      -0.01410000       1.34310000
