16
Properties=species:S:1:pos:R:3 gdb_70499=T pbc="F F F"
C       -0.10990000       1.53340000       0.00550000
C        0.11430000       0.05000000      -0.00820000
O       -0.70760000      -0.74900000       0.86900000
C        0.71000000      -0.77360000       1.06180000
C        1.39780000      -1.98080000       0.43800000
C        1.09730000      -1.82550000      -1.03280000
C        0.41810000      -0.69580000      -1.29000000
C        0.00070000      -0.23890000      -2.56760000
N       -0.34810000       0.17370000      -3.59260000
H        0.74970000       2.06120000      -0.41960000
H       -0.99100000       1.79560000      -0.58890000
H       -0.26890000       1.88010000       1.02880000
H        1.06340000      -0.35570000       2.00050000
H        2.47880000      -1.97320000       0.62800000
H        1.01120000      -2.92620000       0.83730000
H        1.37900000      -2.56050000      -1.77700000
