15
Properties=species:S:1:pos:R:3 gdb_132004=T pbc="F F F"
C        0.04670000       1.50820000       0.01980000
C       -0.02850000       0.02090000       0.07080000
C       -1.13150000      -0.72440000      -0.13390000
F       -2.28170000      -0.11090000      -0.40990000
C       -1.14900000      -2.18350000      -0.07200000
N       -2.23970000      -2.83130000      -0.27840000
C        0.17490000      -2.71970000       0.23810000
C        1.22990000      -1.91600000       0.42990000
O        1.17540000      -0.56740000       0.35740000
H        0.76060000       1.83160000      -0.74550000
H       -0.93350000       1.92470000      -0.21030000
H        0.38900000       1.90990000       0.97970000
H       -2.06920000      -3.83580000      -0.19630000
H        0.30780000      -3.79290000       0.31510000
H        2.23210000      -2.25380000       0.66160000
