16
Properties=species:S:1:pos:R:3 gdb_113651=T pbc="F F F"
O       -0.15870000       1.40000000       0.16560000
C       -0.01970000       0.05040000      -0.22960000
C       -1.23010000      -0.76040000       0.16490000
C       -1.17680000      -2.23350000       0.46960000
N       -1.25640000      -1.25330000       1.52780000
C       -2.22080000      -1.03100000       2.47240000
O       -2.71180000       0.05360000       2.71310000
C       -2.61130000      -2.24250000       3.32690000
O       -2.28130000      -3.37470000       3.09670000
H       -0.40670000       1.40720000       1.09780000
H        0.08850000       0.05690000      -1.31950000
H        0.88160000      -0.41710000       0.19740000
H       -2.17720000      -0.36850000      -0.20360000
H       -2.05920000      -2.83100000       0.26150000
H       -0.23350000      -2.76760000       0.39670000
H       -3.26770000      -1.95280000       4.17250000
