16
Properties=species:S:1:pos:R:3 gdb_19710=T pbc="F F F"
O       -0.03290000       1.44870000      -0.07140000
C        0.02280000       0.04320000       0.00330000
C        0.01590000      -0.63390000       1.39550000
C       -1.48500000      -0.20190000       1.56980000
C       -2.18030000      -1.34870000       2.28880000
O       -1.55990000      -2.48200000       1.65610000
C       -0.67160000      -1.86780000       0.74280000
C       -1.34920000      -0.64020000       0.06570000
H        0.85570000       1.79150000       0.06540000
H        0.73450000      -0.36660000      -0.72690000
H        0.79450000      -0.63750000       2.15990000
H       -1.73330000       0.82650000       1.81700000
H       -1.98670000      -1.36840000       3.36870000
H       -3.26480000      -1.37350000       2.12420000
H       -0.11960000      -2.61720000       0.17740000
H       -2.13250000      -0.64650000      -0.69230000
