17
Properties=species:S:1:pos:R:3 gdb_38616=T pbc="F F F"
C       -0.04230000       1.57590000       0.06250000
C        1.43180000       1.96280000       0.03680000
O        2.22950000       1.96590000      -1.17850000
C        2.22700000       0.80620000      -0.37550000
C        3.13570000       0.21750000       0.68740000
O        2.11180000      -0.41880000       1.48800000
C        1.07770000      -0.85390000       0.60730000
C        0.01020000       0.05400000      -0.06670000
C        1.29520000      -0.33460000      -0.76380000
H       -0.49430000       1.92620000       0.99670000
H       -0.61920000       2.00690000      -0.76410000
H        1.81130000       2.64760000       0.79000000
H        3.85110000      -0.52900000       0.31860000
H        3.65180000       0.95420000       1.30570000
H        0.76270000      -1.87040000       0.81780000
H       -0.90900000      -0.47660000      -0.30350000
H        1.41170000      -0.89660000      -1.68250000
