18
Properties=species:S:1:pos:R:3 gdb_106719=T pbc="F F F"
C        0.12950000       1.26320000       0.23810000
O       -0.20750000      -0.05440000      -0.16250000
C        0.51370000      -0.51180000      -1.23760000
C        1.94850000      -1.00620000      -1.10010000
C        0.88590000      -1.98320000      -1.52210000
O        0.63230000      -3.10920000      -0.77450000
C        0.51090000      -1.77310000      -2.96820000
N       -0.91850000      -1.36260000      -2.98850000
C        0.13610000      -0.35320000      -2.69090000
H        1.19060000       1.34000000       0.51350000
H       -0.08100000       1.99540000      -0.55430000
H       -0.48640000       1.49830000       1.10890000
H        2.74110000      -0.69510000      -1.77590000
H        2.25330000      -1.13590000      -0.06590000
H       -0.31640000      -3.27790000      -0.83140000
H        0.99810000      -2.16790000      -3.85220000
H       -1.18160000      -1.24040000      -3.96810000
H        0.29150000       0.49640000      -3.34590000
