15
Properties=species:S:1:pos:R:3 gdb_127679=T pbc="F F F"
C        0.00970000       1.41670000      -0.00730000
N       -0.05150000      -0.04060000      -0.01960000
N       -0.29660000      -0.61480000      -1.24570000
C       -0.35310000      -1.89350000      -1.27160000
N       -0.18750000      -2.70350000      -0.17560000
C        0.06440000      -2.21380000       1.10650000
N        0.22790000      -2.90080000       2.16310000
C        0.13840000      -0.70320000       1.17780000
O        0.34930000      -0.10180000       2.20840000
H        0.98730000       1.75270000       0.34830000
H       -0.16200000       1.75630000      -1.02680000
H       -0.75090000       1.82300000       0.66450000
H       -0.54420000      -2.38390000      -2.21810000
H       -0.24970000      -3.70450000      -0.29510000
H        0.15420000      -3.90390000       1.98000000
