17
Properties=species:S:1:pos:R:3 gdb_28338=T pbc="F F F"
C        0.07820000       1.49550000      -0.01490000
C       -0.07520000       0.01070000       0.00560000
C       -1.22320000      -0.68070000       0.18480000
C       -1.17570000      -2.10780000       0.17380000
C       -0.01050000      -2.78080000      -0.01140000
C        0.11600000      -4.27550000      -0.03500000
C        1.22160000      -2.02770000      -0.20370000
O        2.32230000      -2.48300000      -0.37820000
O        1.09830000      -0.63060000      -0.18080000
H        0.77140000       1.82060000       0.76850000
H        0.49720000       1.82490000      -0.97190000
H       -0.88480000       1.98550000       0.13800000
H       -2.15480000      -0.15160000       0.33280000
H       -2.09750000      -2.66500000       0.31760000
H        0.53420000      -4.61660000      -0.98810000
H        0.80670000      -4.62080000       0.74170000
H       -0.85440000      -4.75440000       0.11670000
