21
Properties=species:S:1:pos:R:3 gdb_53949=T pbc="F F F"
C        0.66510000       1.15050000       0.27200000
C       -0.27940000       0.00670000      -0.02670000
O       -1.07920000      -0.40430000       0.78160000
C       -0.17390000      -0.66330000      -1.41840000
C       -1.58470000      -0.94840000      -1.94410000
O        0.50010000       0.26260000      -2.27570000
C        0.70950000      -1.89810000      -1.23850000
C        0.18510000      -3.25190000      -0.85380000
C        0.73780000      -3.03440000      -2.24050000
H        1.69970000       0.87150000       0.05130000
H        0.43560000       1.99590000      -0.38400000
H        0.55940000       1.44270000       1.31730000
H       -2.08810000       0.00260000      -2.13600000
H       -1.55460000      -1.50560000      -2.88510000
H       -2.17090000      -1.50350000      -1.21040000
H        0.80080000      -0.23320000      -3.04470000
H        1.68060000      -1.63800000      -0.82460000
H        0.76290000      -3.83900000      -0.14900000
H       -0.88680000      -3.37370000      -0.75650000
H        0.03330000      -3.02730000      -3.06490000
H        1.70330000      -3.46070000      -2.48930000
