15
Properties=species:S:1:pos:R:3 gdb_4979=T pbc="F F F"
N       -0.03500000       1.42580000      -0.13340000
C       -0.02990000       0.03180000      -0.05630000
C       -1.20240000      -0.72190000       0.02040000
C       -1.16540000      -2.11510000       0.03780000
C        0.05230000      -2.78220000      -0.02080000
C        1.23450000      -2.04350000      -0.09420000
C        1.19690000      -0.65650000      -0.11080000
O        2.32160000       0.12910000      -0.17190000
H        0.84220000       1.84690000       0.13710000
H       -0.82260000       1.86580000       0.31950000
H       -2.15470000      -0.20110000       0.06290000
H       -2.09320000      -2.67350000       0.09780000
H        0.09280000      -3.86540000      -0.00850000
H        2.19670000      -2.54860000      -0.13540000
H        3.09950000      -0.43670000      -0.17500000
