17
Properties=species:S:1:pos:R:3 gdb_25950=T pbc="F F F"
C        0.02790000       1.60820000      -0.16120000
C       -0.01750000       0.11670000      -0.29170000
N        0.24810000      -0.50410000      -1.35430000
O       -0.39870000      -0.43320000       0.93340000
C       -0.49950000      -1.78810000       1.04740000
C       -1.39360000      -2.69880000       0.53730000
C       -1.03010000      -3.96860000       1.07670000
C        0.06110000      -3.78460000       1.89010000
N        0.38380000      -2.44760000       1.86050000
H        0.32530000       2.04800000      -1.11180000
H       -0.95450000       1.99020000       0.13350000
H        0.73580000       1.90040000       0.62070000
H        0.14610000      -1.51480000      -1.23610000
H       -2.21120000      -2.47570000      -0.12920000
H       -1.52340000      -4.90870000       0.88510000
H        0.63110000      -4.47890000       2.48500000
H        1.12520000      -1.99740000       2.36860000
