17
Properties=species:S:1:pos:R:3 gdb_69194=T pbc="F F F"
C        0.07490000       1.55620000       0.10070000
C        0.08040000       0.06080000       0.02960000
C       -0.89690000      -0.88430000       0.66010000
C        0.58540000      -0.99730000       1.01410000
C        1.31920000      -1.63510000      -0.13320000
N        2.09690000      -2.61400000      -0.24920000
N        0.80060000      -0.65650000      -1.04180000
C        0.69030000      -0.65840000      -2.40200000
O        1.25590000      -1.44770000      -3.12760000
H        1.08500000       1.95810000      -0.02370000
H       -0.56590000       1.99200000      -0.67380000
H       -0.31240000       1.88410000       1.06940000
H       -1.51220000      -0.46740000       1.45220000
H       -1.37680000      -1.65810000       0.06900000
H        0.95600000      -0.87910000       2.02170000
H        2.38470000      -2.72580000      -1.22300000
H        0.04920000       0.16440000      -2.77570000
