19
Properties=species:S:1:pos:R:3 gdb_70663=T pbc="F F F"
C       -0.44010000       1.41770000       0.13870000
C       -0.00520000      -0.02580000       0.07320000
C       -0.58430000      -1.07100000       1.01990000
C        0.87270000      -0.68850000       1.10090000
O        1.83510000      -1.50650000       0.50210000
C        1.42530000      -1.76250000      -0.84010000
C        0.50280000      -0.59770000      -1.26680000
C       -0.65270000      -1.02480000      -2.14810000
O       -1.04950000      -2.15770000      -2.26260000
H        0.33090000       2.08380000      -0.26610000
H       -1.36360000       1.59270000      -0.42550000
H       -0.63200000       1.71960000       1.17310000
H       -1.23680000      -0.70760000       1.80710000
H       -0.85660000      -2.04470000       0.62710000
H        1.26180000      -0.16680000       1.96830000
H        2.32460000      -1.84010000      -1.45640000
H        0.87510000      -2.70740000      -0.91070000
H        1.05510000       0.19900000      -1.78090000
H       -1.16580000      -0.19010000      -2.67660000
