16
Properties=species:S:1:pos:R:3 gdb_30879=T pbc="F F F"
C        0.10730000       1.20750000       0.36000000
O       -0.21560000       0.18300000      -0.58980000
C       -1.25410000      -0.59340000      -0.25200000
C       -1.39830000      -1.91000000       0.02200000
N       -0.44690000      -2.92760000       0.06600000
N       -2.75180000      -2.20710000       0.18110000
C       -3.34570000      -1.06750000      -0.00030000
N       -4.68630000      -0.79380000       0.14310000
O       -2.54260000      -0.02820000      -0.28540000
H        1.00630000       1.70300000      -0.01130000
H       -0.70660000       1.93620000       0.43790000
H        0.29980000       0.77410000       1.34860000
H        0.49090000      -2.58050000       0.21640000
H       -0.68550000      -3.62880000       0.75580000
H       -5.25240000      -1.62880000       0.09710000
H       -5.02490000      -0.05470000      -0.45660000
