9
Properties=species:S:1:pos:R:3 gdb_23857=T pbc="F F F"
F        0.05580000       0.07810000       0.13850000
C       -0.00650000       1.38390000       0.03740000
N       -1.17920000       1.89980000       0.00740000
O       -1.27750000       3.26960000      -0.09850000
N       -0.18880000       4.09170000      -0.17200000
C        0.98530000       3.56440000      -0.14110000
C        1.25980000       2.12970000      -0.03180000
O        2.36250000       1.62670000      -0.00220000
H        1.81700000       4.26000000      -0.20260000
