14
Properties=species:S:1:pos:R:3 gdb_51307=T pbc="F F F"
O        1.90870000       4.10040000       0.05220000
C        1.02560000       3.27390000       0.04220000
N        1.22980000       1.92190000      -0.04890000
C        2.46210000       1.30550000      -0.14190000
C        3.72280000       1.75190000      -0.17180000
C        4.62420000       0.55790000      -0.28490000
O        3.75610000      -0.58560000      -0.31490000
C        2.46650000      -0.17550000      -0.23180000
O        1.51430000      -0.90960000      -0.23330000
H       -0.04950000       3.52250000       0.10570000
H        0.43920000       1.28920000      -0.05150000
H        4.06160000       2.77400000      -0.12520000
H        5.22620000       0.55770000      -1.20180000
H        5.30610000       0.45050000       0.56750000
