22
Properties=species:S:1:pos:R:3 gdb_63667=T pbc="F F F"
C       -0.02780000       1.52370000      -0.36540000
C       -0.00540000       0.03410000      -0.07220000
C       -1.24650000      -0.70470000      -0.53530000
C        1.30550000      -0.68300000      -0.05150000
N        0.55080000      -0.48160000       1.18570000
C        1.10320000       0.41890000       2.18600000
C        1.88770000      -0.40380000       3.22650000
C        2.45480000       0.42500000       4.28180000
C        2.90870000       1.13500000       5.13920000
H        0.89680000       2.02690000      -0.07600000
H       -0.17220000       1.68970000      -1.43830000
H       -0.86010000       2.01210000       0.15510000
H       -1.36780000      -0.62400000      -1.62160000
H       -1.18710000      -1.76190000      -0.26650000
H       -2.14480000      -0.28670000      -0.06640000
H        1.38630000      -1.70900000      -0.40300000
H        2.20380000      -0.08320000      -0.19940000
H        1.76990000       1.19160000       1.77290000
H        0.27770000       0.93610000       2.68700000
H        1.21800000      -1.16010000       3.65160000
H        2.68740000      -0.95430000       2.71490000
H        3.31480000       1.74940000       5.90380000
