15
Properties=species:S:1:pos:R:3 gdb_55234=T pbc="F F F"
N       -0.08860000       0.78210000       1.04400000
C       -0.01890000      -0.10540000      -0.01310000
N        0.96510000      -0.37190000      -0.77560000
C       -1.26720000      -0.96750000      -0.20250000
O       -1.23210000      -2.12010000       0.62140000
C       -2.11220000      -1.92250000       1.70600000
C       -2.98590000      -0.74910000       1.29560000
O       -3.94710000      -0.28800000       1.82860000
O       -2.44880000      -0.24470000       0.14280000
H        0.67850000       1.43410000       1.12360000
H       -0.99180000       1.20520000       1.20510000
H        1.78320000       0.20160000      -0.55850000
H       -1.32140000      -1.28070000      -1.24650000
H       -2.71690000      -2.81910000       1.86920000
H       -1.58310000      -1.67690000       2.63700000
