18
Properties=species:S:1:pos:R:3 gdb_32233=T pbc="F F F"
C       -0.02080000       1.45620000      -0.03100000
N       -0.11250000       0.01410000       0.09130000
C        0.58760000      -0.67320000       1.06660000
C        1.21830000      -0.04380000       2.14580000
N        1.85230000      -0.71800000       3.10790000
C        1.86630000      -2.04100000       2.98760000
N        1.30970000      -2.75220000       2.00310000
C        0.67110000      -2.08530000       1.04500000
C        0.03400000      -2.88210000      -0.05990000
H        1.01170000       1.81910000      -0.14960000
H       -0.60080000       1.77170000      -0.90060000
H       -0.45130000       1.94520000       0.84960000
H       -0.21560000      -0.47800000      -0.78120000
H        1.21010000       1.03820000       2.24090000
H        2.38040000      -2.60250000       3.76290000
H       -1.03780000      -2.66330000      -0.14120000
H        0.48550000      -2.65500000      -1.03560000
H        0.16760000      -3.94570000       0.13870000
