17
Properties=species:S:1:pos:R:3 gdb_72239=T pbc="F F F"
O       -0.10040000       1.35660000       0.14590000
C        0.04690000      -0.01990000       0.01760000
C        0.86360000      -0.77380000      -1.02090000
C       -0.10750000      -1.98150000      -0.76350000
O        0.40670000      -2.88630000       0.20820000
C        0.50230000      -2.17880000       1.44600000
C       -0.27830000      -0.89220000       1.22510000
O       -0.76090000      -0.24750000       2.35100000
C       -1.09010000      -1.03100000      -0.04370000
H        0.75130000       1.72560000       0.41120000
H        0.71570000      -0.35120000      -2.01940000
H        1.92900000      -0.95500000      -0.84320000
H       -0.43340000      -2.55250000      -1.63030000
H        0.04640000      -2.77380000       2.24630000
H        1.55490000      -1.99990000       1.70500000
H       -0.81510000       0.69240000       2.12750000
H       -2.16240000      -0.92860000      -0.13460000
