18
Properties=species:S:1:pos:R:3 gdb_70590=T pbc="F F F"
O       -0.01230000       1.36460000       0.02750000
C        0.01130000      -0.03790000       0.03800000
C       -0.26700000      -0.68030000       1.36340000
C        1.12610000      -0.73770000       0.77660000
O        1.56940000      -1.97290000       0.29590000
C        1.75170000      -2.03950000      -1.10980000
C        0.49480000      -1.67500000      -1.87880000
N       -0.76960000      -2.10230000      -1.26180000
C       -0.41440000      -0.67270000      -1.26300000
H        0.69180000       1.67130000      -0.55520000
H       -0.42790000      -0.01120000       2.20060000
H       -0.83120000      -1.60480000       1.35680000
H        1.90140000      -0.11970000       1.22840000
H        2.57290000      -1.37900000      -1.43760000
H        2.04840000      -3.07280000      -1.31580000
H        0.59000000      -1.70670000      -2.96230000
H       -1.47030000      -2.28170000      -1.97550000
H       -0.97740000      -0.00090000      -1.90600000
