18
Properties=species:S:1:pos:R:3 gdb_10617=T pbc="F F F"
O        0.34550000       1.20010000      -0.45660000
C        0.11080000       0.00050000       0.25940000
C       -1.32230000      -0.49110000       0.12590000
C       -2.32730000       0.28440000       0.94140000
O       -2.31410000       1.64380000       0.48950000
C       -1.75320000      -1.01030000      -1.23470000
C       -1.58510000      -1.96070000      -0.07980000
O       -0.48770000      -2.82590000      -0.02680000
H       -0.38940000       1.78800000      -0.23880000
H        0.79740000      -0.75100000      -0.13570000
H        0.34510000       0.12300000       1.33120000
H       -3.33380000      -0.14690000       0.83090000
H       -2.05600000       0.23480000       2.00720000
H       -2.78520000       2.18480000       1.13000000
H       -2.75440000      -0.78880000      -1.58930000
H       -0.98810000      -1.01850000      -2.00350000
H       -2.49240000      -2.36470000       0.37260000
H       -0.58210000      -3.46670000      -0.73880000
