15
Properties=species:S:1:pos:R:3 gdb_15104=T pbc="F F F"
C       -0.01450000      -0.88580000      -0.93780000
C        0.07850000       0.06580000      -0.21200000
C        0.17780000       1.22560000       0.67660000
C        1.40960000       1.99690000       0.50000000
C        2.42620000       2.62720000       0.35800000
C        3.62410000       3.40030000       0.18930000
C        4.55760000       3.08950000      -0.93530000
N        3.76150000       4.31970000      -0.96850000
H       -0.09300000      -1.72780000      -1.57990000
H       -0.69310000       1.87740000       0.51980000
H        0.10800000       0.88930000       1.72050000
H        4.04860000       3.80540000       1.10440000
H        5.62420000       3.23630000      -0.79090000
H        4.28840000       2.26760000      -1.59180000
H        2.96030000       4.19040000      -1.58220000
