20
Properties=species:S:1:pos:R:3 gdb_81912=T pbc="F F F"
C       -0.91500000       1.16660000       0.18370000
C       -0.01220000      -0.05620000       0.07070000
C        0.77220000      -0.24680000      -1.26250000
C        0.88820000       0.93190000      -2.24240000
C        2.15860000      -0.74960000      -0.80820000
O        2.99250000      -1.24850000      -1.52150000
C        2.25980000      -0.55210000       0.67250000
C        2.03950000       0.86330000       1.11130000
N        0.96110000      -0.10690000       1.20660000
H       -0.36220000       2.10140000       0.05320000
H       -1.70550000       1.13620000      -0.57200000
H       -1.38590000       1.18780000       1.17050000
H       -0.63390000      -0.94650000       0.21530000
H        0.32630000      -1.07990000      -1.81620000
H        1.32190000       1.82530000      -1.78400000
H        1.53150000       0.64160000      -3.07790000
H       -0.09100000       1.20660000      -2.64470000
H        2.87240000      -1.22980000       1.25690000
H        2.46460000       1.17840000       2.05970000
H        2.00430000       1.64020000       0.35280000
