16
Properties=species:S:1:pos:R:3 gdb_33984=T pbc="F F F"
N        0.01900000      -1.14200000       0.08520000
C        0.01190000       0.01360000       0.02070000
C       -0.08380000       1.44000000      -0.01060000
C        0.25380000       2.28730000      -1.18510000
N        1.11570000       2.39060000      -0.00500000
C        0.36880000       3.25840000       0.98730000
C       -0.79760000       2.26870000       1.04510000
C       -2.25030000       2.37860000       1.29280000
N       -1.34420000       1.76390000       2.28680000
H        0.73650000       1.80190000      -2.02730000
H       -0.41470000       3.10760000      -1.43880000
H        0.91770000       3.30880000       1.92850000
H        0.17030000       4.26640000       0.61130000
H       -2.68320000       3.32720000       1.59820000
H       -2.91270000       1.73720000       0.71630000
H       -1.41740000       0.74810000       2.26840000
