18
Properties=species:S:1:pos:R:3 gdb_121432=T pbc="F F F"
N       -0.09640000       0.56370000      -0.39920000
C       -0.55100000      -0.71570000      -0.34970000
N        0.45200000      -1.70900000      -0.28310000
C        1.80410000      -1.56910000      -0.38370000
O        2.41000000      -0.52490000      -0.53400000
N       -1.75700000      -1.13860000      -0.32630000
C       -2.83360000      -0.16480000      -0.36680000
C       -4.16050000      -0.92580000      -0.34780000
O       -4.22360000      -1.79870000       0.75980000
H        0.89370000       0.71090000      -0.54870000
H       -0.75180000       1.29310000      -0.61510000
H        0.06690000      -2.63760000      -0.19050000
H        2.31680000      -2.54480000      -0.31110000
H       -2.79260000       0.50470000       0.50820000
H       -2.79070000       0.46990000      -1.26960000
H       -5.00010000      -0.22760000      -0.26470000
H       -4.26890000      -1.47440000      -1.29810000
H       -3.36530000      -2.24390000       0.76530000
