19
Properties=species:S:1:pos:R:3 gdb_60196=T pbc="F F F"
C        0.18010000       1.41940000      -0.03540000
N        0.04200000      -0.02610000       0.06460000
C        0.54500000      -0.52010000       1.34170000
C       -1.32020000      -0.46150000      -0.20670000
C       -1.37320000      -1.93570000      -0.53000000
O       -1.54960000      -2.86240000       0.54600000
C       -2.60830000      -2.74000000      -0.40210000
C       -3.84700000      -2.15580000       0.06920000
N       -4.85420000      -1.70740000       0.41660000
H        1.23060000       1.69490000       0.09880000
H       -0.13540000       1.75810000      -1.02710000
H       -0.41240000       1.96960000       0.72000000
H       -0.01160000      -0.11310000       2.20680000
H        0.47800000      -1.60930000       1.38400000
H        1.59640000      -0.23740000       1.45070000
H       -2.02040000      -0.24630000       0.62150000
H       -1.68330000       0.08330000      -1.08660000
H       -0.65440000      -2.26430000      -1.28110000
H       -2.74770000      -3.59880000      -1.05620000
