14
Properties=species:S:1:pos:R:3 gdb_30999=T pbc="F F F"
O        0.09880000       1.41310000       0.31490000
C        0.07850000       0.01090000       0.05180000
C       -1.30090000      -0.52900000      -0.04140000
C       -1.93920000      -1.24640000      -0.97730000
O       -1.51890000      -1.74000000      -2.14870000
O       -3.22390000      -1.52850000      -0.60380000
C       -3.45230000      -0.93110000       0.65330000
O       -4.50940000      -0.96530000       1.21560000
N       -2.25690000      -0.37170000       0.99510000
H       -0.35040000       1.84980000      -0.41730000
H        0.62340000      -0.25160000      -0.86500000
H        0.62020000      -0.43500000       0.89460000
H       -2.27870000      -2.12270000      -2.60380000
H       -2.16410000       0.26580000       1.76730000
