20
Properties=species:S:1:pos:R:3 gdb_105012=T pbc="F F F"
C        0.47060000       0.35650000       0.98050000
O       -0.03250000      -0.54970000       0.00530000
C        0.74550000      -0.71340000      -1.14080000
C        2.05430000      -1.44830000      -1.01470000
C        0.84340000      -2.13370000      -1.61690000
C        0.59560000       0.38000000      -2.20930000
C       -0.88390000       0.67100000      -2.52520000
C        1.31090000       1.61320000      -1.85010000
N        1.87670000       2.58550000      -1.58280000
H        1.51190000       0.12880000       1.24140000
H        0.41580000       1.39850000       0.64670000
H       -0.15670000       0.23180000       1.86600000
H        2.87540000      -1.16770000      -1.66540000
H        2.35300000      -1.75600000      -0.01940000
H        0.33780000      -2.87380000      -1.00850000
H        0.83180000      -2.33130000      -2.68340000
H        1.08350000       0.00650000      -3.11780000
H       -1.36720000      -0.24590000      -2.87260000
H       -1.40590000       1.01260000      -1.62980000
H       -0.97470000       1.43450000      -3.30120000
