21
Properties=species:S:1:pos:R:3 gdb_1295=T pbc="F F F"
C        0.02600000       1.58350000       0.03480000
C        0.00750000       0.05270000       0.00590000
C       -1.40910000      -0.53060000      -0.00070000
C       -1.43990000      -2.06130000      -0.03540000
C       -2.85510000      -2.64900000       0.04280000
C       -2.86060000      -4.17380000      -0.07190000
O       -3.53640000      -2.22200000       1.22290000
H        1.04910000       1.97260000       0.04480000
H       -0.48080000       2.00170000      -0.84220000
H       -0.48610000       1.96770000       0.92400000
H        0.55400000      -0.30380000      -0.87780000
H        0.55520000      -0.33630000       0.87500000
H       -1.95830000      -0.18720000       0.88370000
H       -1.95900000      -0.13950000      -0.86830000
H       -0.95430000      -2.42580000      -0.95060000
H       -0.84790000      -2.46400000       0.80160000
H       -3.45460000      -2.22920000      -0.77550000
H       -2.26100000      -4.62510000       0.72900000
H       -3.88120000      -4.55780000       0.00870000
H       -2.43840000      -4.50280000      -1.02710000
H       -3.07070000      -2.60100000       1.97700000
