20
Properties=species:S:1:pos:R:3 gdb_99711=T pbc="F F F"
C        0.78330000      -1.08360000      -1.14750000
O        0.13020000      -0.97110000       0.09860000
C       -1.08790000      -0.23890000       0.04780000
C       -2.12690000      -0.94610000      -0.71470000
C       -2.96850000      -1.54590000      -1.33510000
C       -3.98040000      -2.26390000      -2.09740000
C       -1.48680000       0.02870000       1.49180000
C       -2.88390000       0.36370000       1.85210000
N       -2.29420000      -0.92470000       2.25650000
H        1.71580000      -1.62380000      -0.96930000
H        0.17980000      -1.63900000      -1.87840000
H        1.01900000      -0.09410000      -1.57070000
H       -0.89730000       0.73470000      -0.43950000
H       -4.98890000      -1.99800000      -1.76300000
H       -3.91210000      -2.03100000      -3.16550000
H       -3.86760000      -3.34730000      -1.98320000
H       -0.67020000       0.47280000       2.05540000
H       -3.07830000       1.05790000       2.66450000
H       -3.62440000       0.36520000       1.05710000
H       -2.62720000      -1.65400000       1.62770000
