19
Properties=species:S:1:pos:R:3 gdb_119435=T pbc="F F F"
C       -0.19090000       1.57920000      -0.09590000
C       -0.09100000       0.05230000      -0.09040000
C        0.88300000      -0.47990000      -1.15440000
C        0.98150000      -1.97290000      -1.15190000
C        1.61010000      -2.90220000      -0.09120000
C        1.95960000      -3.85370000      -1.27650000
O        2.65160000      -4.82110000      -1.38240000
C        1.26530000      -2.92530000      -2.26530000
O       -0.06880000      -2.74240000      -1.73650000
H        0.78210000       2.04180000       0.10380000
H       -0.54050000       1.94970000      -1.06580000
H       -0.89070000       1.93250000       0.66720000
H        0.23070000      -0.29370000       0.90000000
H       -1.07920000      -0.38870000      -0.26540000
H        0.55970000      -0.15420000      -2.14990000
H        1.88240000      -0.05800000      -0.98620000
H        2.52620000      -2.52620000       0.37500000
H        0.92610000      -3.27760000       0.67220000
H        1.40830000      -2.77490000      -3.32930000
