12
Properties=species:S:1:pos:R:3 gdb_130738=T pbc="F F F"
O       -0.04590000      -0.05560000       0.24120000
C       -0.04170000       1.14090000       0.07350000
N       -1.07250000       2.05890000      -0.01510000
N       -0.62360000       3.32890000      -0.19540000
N        0.64390000       3.29860000      -0.23230000
N        1.04140000       2.00410000      -0.07400000
C        2.42850000       1.60690000      -0.07470000
C        3.03680000       1.63300000      -1.41170000
N        3.53030000       1.65190000      -2.45490000
H       -2.05970000       1.87220000       0.03960000
H        2.99920000       2.25440000       0.59720000
H        2.45260000       0.58470000       0.31690000
