16
Properties=species:S:1:pos:R:3 gdb_126105=T pbc="F F F"
C        0.07310000       1.53310000       0.00920000
C       -0.01990000      -0.00380000       0.00320000
C       -1.39260000      -0.49410000       0.01300000
C       -2.53230000      -0.88860000       0.02100000
C       -3.86260000      -1.36460000       0.03020000
C       -5.04260000      -0.64620000       0.04190000
N       -6.00340000      -1.59410000       0.04680000
N       -5.47560000      -2.83540000       0.03880000
N       -4.18620000      -2.70470000       0.02880000
H        1.12010000       1.84950000       0.00140000
H       -0.42140000       1.95630000      -0.86940000
H       -0.40590000       1.94850000       0.89990000
H        0.49880000      -0.40030000      -0.87920000
H        0.51410000      -0.40810000       0.87290000
H       -5.25140000       0.40950000       0.04680000
H       -7.00490000      -1.48340000       0.05520000
