17
Properties=species:S:1:pos:R:3 gdb_43124=T pbc="F F F"
O        0.01660000       0.06100000      -0.05870000
C       -0.00870000       1.25740000      -0.01350000
C       -1.22760000       2.19600000       0.03070000
C       -1.31820000       2.72140000       1.49530000
C        0.04520000       3.02250000       2.07520000
C        1.18790000       2.79200000       1.42380000
C        1.16940000       2.25150000      -0.00390000
C        0.60340000       3.29910000      -0.95130000
C       -0.73370000       3.26640000      -0.92240000
H       -2.15530000       1.70260000      -0.26650000
H       -1.96030000       3.61190000       1.54240000
H       -1.81290000       1.95930000       2.11320000
H        0.06630000       3.43870000       3.07930000
H        2.14910000       2.99950000       1.88360000
H        2.12020000       1.80620000      -0.29830000
H        1.21960000       3.97740000      -1.52850000
H       -1.39940000       3.91420000      -1.48000000
