16
Properties=species:S:1:pos:R:3 gdb_24456=T pbc="F F F"
C        0.01230000       1.37700000       0.02320000
O        1.28270000       1.93620000      -0.02840000
C        2.07230000       1.65890000       1.14270000
C        1.89810000       0.21840000       1.51310000
C        0.92290000      -0.50620000       0.87890000
N        0.95210000      -1.79760000       1.31120000
C        1.96690000      -1.91900000       2.24830000
C        2.56240000      -0.69060000       2.39410000
O        0.03240000      -0.05840000      -0.03610000
H       -0.51520000       1.66620000       0.94680000
H       -0.53100000       1.70620000      -0.86290000
H        3.10070000       1.90100000       0.85590000
H        1.78450000       2.34750000       1.95390000
H        0.33180000      -2.52470000       1.00140000
H        2.17040000      -2.86690000       2.71740000
H        3.38980000      -0.46860000       3.05100000
