18
Properties=species:S:1:pos:R:3 gdb_10090=T pbc="F F F"
C        0.03570000       1.65350000       0.00720000
C       -0.00380000       0.12740000      -0.03290000
C       -1.40420000      -0.43580000       0.01490000
N       -1.53630000      -1.84380000      -0.01750000
C       -0.57760000      -2.83120000      -0.08800000
O        0.61890000      -2.68400000      -0.13820000
N       -2.41360000       0.33580000       0.08150000
C       -3.75630000      -0.21240000       0.12720000
H        1.07360000       1.99710000      -0.03030000
H       -0.50630000       2.08590000      -0.83700000
H       -0.42690000       2.03770000       0.91920000
H        0.49310000      -0.25590000      -0.93090000
H        0.57120000      -0.30320000       0.79420000
H       -2.48500000      -2.18610000       0.01600000
H       -1.05850000      -3.83010000      -0.09350000
H       -4.00470000      -0.80240000      -0.76950000
H       -3.92390000      -0.85290000       1.00800000
H       -4.47660000       0.60710000       0.18330000
