20
Properties=species:S:1:pos:R:3 gdb_65575=T pbc="F F F"
C        0.46960000       1.27490000       0.03140000
C       -0.06560000      -0.17480000      -0.00100000
C        0.48140000      -0.98950000      -1.23060000
C        1.53760000      -1.94030000      -0.69240000
C        2.67830000      -1.37920000       0.12000000
C        1.46760000      -1.94820000       0.81750000
C        0.36560000      -1.00250000       1.26550000
C       -1.53020000      -0.09960000      -0.06850000
N       -2.68380000      -0.03680000      -0.12150000
H        1.56000000       1.28670000       0.08200000
H        0.16350000       1.81920000      -0.86630000
H        0.08150000       1.81000000       0.90260000
H       -0.32810000      -1.56860000      -1.68370000
H        0.85870000      -0.30950000      -2.00140000
H        1.71110000      -2.85480000      -1.24840000
H        3.58710000      -1.97010000       0.15900000
H        2.85720000      -0.31000000       0.13390000
H        1.58940000      -2.86850000       1.37760000
H        0.66970000      -0.33070000       2.07500000
H       -0.48200000      -1.58590000       1.63570000
