16
Properties=species:S:1:pos:R:3 gdb_54707=T pbc="F F F"
O        0.12180000       0.10120000      -0.79390000
C        0.03660000       1.19280000      -0.02750000
O        0.93860000       1.55640000       0.68410000
C       -1.27520000       1.97680000      -0.11840000
C       -1.64040000       2.76030000      -1.38990000
C       -2.41260000       1.80020000      -2.29600000
N       -2.37400000       0.48020000      -1.62060000
H       -3.21740000      -0.03550000      -1.86360000
H       -0.74530000      -0.01220000      -1.27080000
C       -2.63780000       1.25810000      -0.34720000
C       -3.12590000       2.50690000      -1.18250000
H       -1.32960000       2.63720000       0.74770000
H       -1.16140000       3.64780000      -1.78130000
H       -2.46340000       1.91300000      -3.37040000
H       -3.15460000       0.73150000       0.45120000
H       -3.97560000       3.17260000      -1.12830000
