14
Properties=species:S:1:pos:R:3 gdb_35593=T pbc="F F F"
C        0.25260000      -1.16140000       0.04740000
C        0.09150000       0.02950000       0.02450000
C       -0.09240000       1.47780000      -0.00340000
C       -0.64500000       2.07280000       1.34170000
N        0.50630000       2.66320000       2.03410000
C        1.45710000       2.67610000       1.18090000
N        1.19220000       2.20790000      -0.10320000
C        2.76580000       3.19890000       1.46780000
N        3.83260000       3.59780000       1.66200000
H        0.39030000      -2.21470000       0.07000000
H       -0.73670000       1.74770000      -0.84500000
H       -1.37900000       2.86110000       1.13900000
H       -1.12430000       1.31510000       1.96440000
H        1.94450000       1.75540000      -0.60540000
