19
Properties=species:S:1:pos:R:3 gdb_41868=T pbc="F F F"
C       -0.05350000       1.53680000       0.05210000
O        1.32140000       1.91720000      -0.01060000
C        2.14850000       0.75760000       0.02310000
C        3.10650000       0.68890000      -1.17610000
C        3.64120000      -0.71220000      -1.35300000
C        3.05780000      -1.80530000      -0.85980000
C        1.77540000      -1.79490000      -0.05840000
C        1.20130000      -0.41440000       0.01340000
C       -0.04940000       0.03280000       0.01260000
H       -0.51270000       1.93260000       0.97320000
H       -0.59760000       1.98330000      -0.79430000
H        2.75240000       0.76650000       0.94710000
H        2.56060000       1.00680000      -2.07460000
H        3.92960000       1.40130000      -1.04980000
H        4.56010000      -0.81620000      -1.92490000
H        3.50840000      -2.78000000      -1.02960000
H        1.04920000      -2.49670000      -0.48800000
H        1.98450000      -2.17690000       0.95380000
H       -0.95500000      -0.56100000      -0.01640000
