21
Properties=species:S:1:pos:R:3 gdb_75331=T pbc="F F F"
C        0.63740000       1.35260000       0.10130000
C        0.00450000      -0.00660000      -0.02980000
C        0.11730000      -0.74060000      -1.13980000
C       -0.50980000      -2.09230000      -1.35260000
C       -0.94610000      -2.76850000      -0.06630000
C        0.04390000      -2.94210000       1.07400000
C       -1.08050000      -1.96250000       1.20220000
O       -2.06250000      -2.34230000       2.13250000
C       -0.79870000      -0.47200000       1.16390000
H        1.35360000       1.37720000       0.93300000
H        1.16360000       1.64390000      -0.81160000
H       -0.11540000       2.12140000       0.32020000
H        0.68820000      -0.34150000      -1.97590000
H       -1.37870000      -1.98300000      -2.01980000
H        0.19070000      -2.73990000      -1.89920000
H       -1.66240000      -3.57690000      -0.17900000
H       -0.03380000      -3.84510000       1.66800000
H        1.04920000      -2.55580000       0.94190000
H       -2.90740000      -1.99350000       1.82650000
H       -0.30180000      -0.16900000       2.09620000
H       -1.76330000       0.06220000       1.16720000
