23
Properties=species:S:1:pos:R:3 gdb_94832=T pbc="F F F"
C        0.04250000       1.55340000       0.05410000
C        0.01440000       0.02470000      -0.00720000
C        0.65740000      -0.52280000      -1.29200000
C        0.71290000      -2.05880000      -1.26160000
C        1.34200000      -2.52970000       0.03320000
C        1.86700000      -3.91670000       0.19820000
C        2.83550000      -2.74780000       0.13450000
O        0.70140000      -2.01470000       1.17320000
C        0.71900000      -0.59350000       1.20720000
H        1.07210000       1.93010000       0.04370000
H       -0.47790000       1.99090000      -0.80420000
H       -0.44030000       1.92770000       0.96340000
H       -1.03140000      -0.31260000       0.02200000
H        0.10730000      -0.17410000      -2.17350000
H        1.67800000      -0.12400000      -1.37760000
H       -0.30440000      -2.46640000      -1.32770000
H        1.27420000      -2.44680000      -2.11810000
H        1.71270000      -4.38080000       1.16560000
H        1.81190000      -4.59290000      -0.64830000
H        3.44560000      -2.62820000      -0.75470000
H        3.31600000      -2.45540000       1.06130000
H        1.75990000      -0.22930000       1.25500000
H        0.21940000      -0.30890000       2.13860000
