19
Properties=species:S:1:pos:R:3 gdb_7565=T pbc="F F F"
C       -0.10830000       1.56580000       0.14100000
C       -0.02480000       0.03770000       0.03500000
C        1.09100000      -0.44740000      -0.95380000
C        2.00920000      -0.72830000       0.26670000
C        0.77430000      -0.61100000       1.20030000
C       -1.42130000      -0.54220000      -0.17240000
N       -1.93410000      -0.37040000      -1.43010000
O       -2.05090000      -1.08760000       0.71380000
H        0.88440000       1.99410000       0.31530000
H       -0.51250000       2.01200000      -0.77380000
H       -0.75450000       1.85920000       0.97470000
H        0.80910000      -1.36340000      -1.48120000
H        1.44420000       0.28300000      -1.68830000
H        2.54040000      -1.68230000       0.26850000
H        2.73970000       0.06830000       0.42920000
H        0.88650000      -0.00660000       2.10370000
H        0.34830000      -1.57550000       1.48140000
H       -1.36350000      -0.05670000      -2.19550000
H       -2.82120000      -0.79860000      -1.63960000
