23
Properties=species:S:1:pos:R:3 gdb_100043=T pbc="F F F"
C       -0.46350000       1.60550000      -0.75680000
C       -0.47570000       0.12570000      -0.36030000
C       -1.87690000      -0.50770000      -0.29810000
C       -2.78370000       0.17310000       0.74450000
O       -2.46860000      -0.37840000      -1.58750000
C       -1.75880000      -1.98970000       0.07650000
O       -2.75590000      -2.84820000      -0.49870000
C       -1.36820000      -3.09240000      -0.81770000
C       -0.92460000      -2.97350000      -2.25400000
H        0.56480000       1.96080000      -0.87430000
H       -0.98640000       1.75230000      -1.70520000
H       -0.94410000       2.23610000      -0.00290000
H        0.11570000      -0.44590000      -1.08370000
H        0.00900000      -0.00670000       0.61540000
H       -2.99160000       1.20360000       0.44970000
H       -3.73850000      -0.35810000       0.81490000
H       -2.32290000       0.17780000       1.73830000
H       -3.12540000      -1.08680000      -1.64360000
H       -1.60650000      -2.15200000       1.14570000
H       -0.98950000      -3.98510000      -0.31430000
H       -1.26080000      -2.04170000      -2.70670000
H        0.16930000      -3.01520000      -2.30210000
H       -1.31060000      -3.81900000      -2.83410000
