13
Properties=species:S:1:pos:R:3 gdb_20342=T pbc="F F F"
C       -0.06460000       1.49930000       0.01080000
C        1.40840000       1.90170000      -0.00110000
C        2.21740000       0.82240000      -0.01490000
C        1.38380000      -0.38120000      -0.01350000
C        0.07930000       0.01300000       0.00130000
O       -0.75660000      -1.01760000       0.00370000
N        0.02840000      -2.19430000      -0.01050000
C        1.28440000      -1.79470000      -0.02020000
H       -0.58970000       1.87270000       0.89860000
H       -0.60670000       1.88240000      -0.86250000
H        1.72390000       2.93630000       0.00160000
H        3.29880000       0.84040000      -0.02520000
H        2.05510000      -2.55270000      -0.03180000
