17
Properties=species:S:1:pos:R:3 gdb_51225=T pbc="F F F"
O       -0.32080000       0.83170000       0.96330000
C        0.03640000       1.19300000      -0.12750000
C        1.42420000       1.73370000      -0.43510000
C        1.37690000       2.90650000      -1.36180000
O        0.99230000       2.69160000      -2.72450000
C        1.46310000       4.04580000      -2.98380000
C        0.40670000       4.93870000      -2.28400000
C        0.96370000       4.34860000      -0.98880000
C        2.30620000       4.03400000      -1.65240000
H       -0.64300000       1.14630000      -1.00630000
H        1.91830000       1.99230000       0.50550000
H        2.00180000       0.92790000      -0.91050000
H        1.80350000       4.19840000      -4.00530000
H        0.64890000       6.00060000      -2.37540000
H       -0.63810000       4.75480000      -2.55240000
H        0.78100000       4.65280000       0.03410000
H        3.33250000       4.25170000      -1.39170000
