22
Properties=species:S:1:pos:R:3 gdb_77906=T pbc="F F F"
C        0.24200000       1.95290000       0.02500000
C        0.38880000       0.44500000      -0.02870000
C        1.62680000      -0.38520000      -0.33660000
N        2.86000000       0.02360000       0.31390000
C        3.63990000       1.15780000      -0.13340000
C        2.25020000      -0.08890000       1.67400000
C        2.32080000       1.07230000       2.65820000
C        0.92710000      -0.51050000       1.01170000
O        0.19130000      -1.58910000       1.47980000
H        1.12990000       2.45350000       0.40860000
H        0.05170000       2.35030000      -0.97830000
H       -0.60380000       2.24440000       0.65930000
H       -0.46890000      -0.03750000      -0.50100000
H        1.65310000      -1.07930000      -1.17150000
H        3.13490000       2.13710000      -0.10730000
H        4.55160000       1.23490000       0.46930000
H        3.95030000       0.97900000      -1.16890000
H        2.67100000      -0.97650000       2.16760000
H        1.87700000       1.99440000       2.27950000
H        1.79110000       0.79750000       3.57700000
H        3.35960000       1.28370000       2.93500000
H       -0.57970000      -1.24810000       1.94470000
