20
Properties=species:S:1:pos:R:3 gdb_95785=T pbc="F F F"
C       -0.07820000       1.52720000       0.00020000
C        0.04120000       0.00880000       0.02580000
N        0.76750000      -0.48410000      -1.15250000
C        0.87080000      -1.94100000      -1.21000000
C        1.72170000      -2.43260000      -0.03850000
C        1.09560000      -1.98720000       1.29440000
O        1.90260000      -2.30830000       2.39130000
C        0.80060000      -0.49170000       1.25440000
O        1.15830000       0.22270000       2.16540000
H        0.91200000       1.98500000      -0.05740000
H       -0.66480000       1.84860000      -0.86660000
H       -0.57150000       1.88880000       0.90460000
H       -0.97480000      -0.43580000       0.09540000
H        0.32220000      -0.12490000      -1.99000000
H       -0.11760000      -2.44010000      -1.18300000
H        1.34400000      -2.21490000      -2.15780000
H        1.81290000      -3.52280000      -0.04750000
H        2.72840000      -2.00830000      -0.10960000
H        0.10970000      -2.48310000       1.38470000
H        1.98670000      -1.48350000       2.89620000
