19
Properties=species:S:1:pos:R:3 gdb_128233=T pbc="F F F"
C        0.30190000       0.90900000       0.56310000
N       -0.42670000       0.25210000      -0.52470000
C        0.35060000      -0.55100000      -1.39160000
C        1.00340000      -0.15770000      -2.54260000
N        1.59520000      -1.26200000      -3.05140000
N        1.37100000      -2.37900000      -2.31090000
C        0.61930000      -1.95060000      -1.30140000
N        0.10680000      -2.81360000      -0.33850000
C        0.60210000      -4.18280000      -0.33020000
H        0.85990000       0.22120000       1.22130000
H        1.02300000       1.61530000       0.14130000
H       -0.40430000       1.47640000       1.17720000
H       -1.20240000      -0.28600000      -0.15550000
H        1.07190000       0.80720000      -3.01940000
H        2.15240000      -1.33820000      -3.88270000
H        0.09420000      -2.39260000       0.58030000
H        1.69150000      -4.25350000      -0.19570000
H        0.10470000      -4.73340000       0.47230000
H        0.35950000      -4.65850000      -1.28350000
