20
Properties=species:S:1:pos:R:3 gdb_96892=T pbc="F F F"
C       -0.13330000       1.36030000       0.05800000
N       -0.06540000      -0.09260000       0.12510000
C       -1.11780000      -0.75620000       0.00600000
O       -2.44240000      -0.32340000      -0.17530000
C       -2.91100000      -1.69530000      -0.00840000
C       -4.12340000      -1.89030000       0.83750000
C       -2.38890000      -2.53500000      -1.12580000
C       -2.15700000      -2.05540000      -2.54010000
C       -1.47720000      -2.19890000       0.07020000
H        0.43500000       1.70620000      -0.81290000
H       -1.15240000       1.75890000      -0.00810000
H        0.35470000       1.78160000       0.94350000
H       -5.00230000      -1.44190000       0.36130000
H       -4.32110000      -2.95720000       0.97500000
H       -3.99360000      -1.42720000       1.82030000
H       -2.73450000      -3.56560000      -1.04920000
H       -1.89840000      -0.99480000      -2.55930000
H       -1.34590000      -2.61660000      -3.01430000
H       -3.06000000      -2.19230000      -3.14450000
H       -1.00750000      -2.94980000       0.68930000
