13
Properties=species:S:1:pos:R:3 gdb_1855=T pbc="F F F"
C       -0.03240000       1.54810000      -0.02750000
C        0.03350000       0.02290000       0.01800000
O        0.78260000      -0.47010000      -1.09960000
C        1.83540000      -1.24170000      -0.66710000
O        2.60590000      -1.76450000      -1.42050000
C        1.78550000      -1.26420000       0.81660000
C        0.74450000      -0.53950000       1.21870000
H        0.97100000       1.97650000       0.04260000
H       -0.48920000       1.87510000      -0.96470000
H       -0.63570000       1.92590000       0.80380000
H       -0.98250000      -0.39030000      -0.05720000
H        2.51230000      -1.80300000       1.40610000
H        0.41860000      -0.34640000       2.23290000
