10
Properties=species:S:1:pos:R:3 gdb_8614=T pbc="F F F"
O       -0.07220000       1.42240000      -0.00240000
C        0.00660000       0.01110000       0.01580000
C        0.70990000      -0.50120000       1.20060000
C        1.30940000      -0.87740000       2.16890000
C       -1.39180000      -0.48540000       0.00830000
N       -2.47210000      -0.88900000       0.01060000
C        0.69470000      -0.48950000      -1.21000000
N        1.26000000      -0.83540000      -2.15510000
H        0.81650000       1.76810000       0.15350000
H        1.83420000      -1.22020000       3.02820000
