18
Properties=species:S:1:pos:R:3 gdb_29507=T pbc="F F F"
C       -0.00640000       1.54580000      -0.03760000
C       -0.00220000       0.04860000       0.01450000
C        0.03160000      -0.79960000      -1.07300000
N        0.03020000      -2.12540000      -0.62380000
C       -0.01160000      -2.07660000       0.72870000
C       -0.03510000      -0.79240000       1.17300000
C        0.00630000      -0.84090000       2.67720000
C       -0.18840000      -2.37970000       2.91120000
O        0.01200000      -3.07700000       1.63890000
H        0.86310000       1.97410000       0.47600000
H        0.01220000       1.90390000      -1.07120000
H       -0.89750000       1.96740000       0.44320000
H        0.04080000      -0.58220000      -2.12860000
H        0.02960000      -2.94850000      -1.19870000
H        0.95960000      -0.48990000       3.09470000
H       -0.78770000      -0.27860000       3.18110000
H        0.51820000      -2.80640000       3.62560000
H       -1.20800000      -2.60080000       3.24360000
