17
Properties=species:S:1:pos:R:3 gdb_84248=T pbc="F F F"
O       -0.01170000       1.42230000       0.18170000
C        0.07050000       0.01240000       0.02400000
C        0.59370000      -0.65290000       1.30330000
C       -0.23280000      -1.66110000       1.64050000
C       -1.35370000      -1.36010000       2.64040000
C       -2.13580000      -1.08050000       1.30630000
C       -1.22800000      -1.98270000       0.51190000
C       -1.33500000      -0.59850000      -0.00080000
O       -2.14220000      -0.32930000      -1.09570000
H        0.83000000       1.80850000      -0.07930000
H        0.57550000      -0.23310000      -0.92320000
H        1.07980000      -0.02040000       2.04150000
H       -1.81040000      -2.21720000       3.14980000
H       -1.17620000      -0.54590000       3.34860000
H       -3.21940000      -1.04020000       1.22580000
H       -1.41630000      -2.91740000       0.00090000
H       -2.28330000       0.62450000      -1.10950000
