16
Properties=species:S:1:pos:R:3 gdb_124072=T pbc="F F F"
C        0.00540000       1.39040000      -0.35860000
O        1.35110000       1.63460000       0.09120000
C        1.45890000       0.30800000       0.64020000
C        0.06850000      -0.09750000       0.08080000
C       -0.96210000      -0.61760000       1.01710000
C       -1.41740000      -0.11910000       2.21990000
N       -2.35300000      -1.01380000       2.61180000
N       -2.48680000      -2.01360000       1.72290000
N       -1.64640000      -1.77420000       0.75920000
H       -0.73070000       1.99450000       0.18880000
H       -0.11210000       1.57170000      -1.43300000
H        2.31920000      -0.23870000       0.23770000
H        1.52200000       0.31710000       1.73670000
H        0.13610000      -0.78510000      -0.76270000
H       -1.16690000       0.75280000       2.80030000
H       -2.92300000      -1.01240000       3.44290000
