17
Properties=species:S:1:pos:R:3 gdb_123798=T pbc="F F F"
C       -0.33960000       1.06220000      -0.31690000
C        1.06100000       1.11620000       0.23900000
C        0.37160000      -0.20990000       0.07990000
N       -0.05230000      -0.87440000       1.27620000
C       -1.08420000      -1.79320000       1.19970000
N       -1.24160000      -2.75140000       2.11680000
N       -2.35510000      -3.37020000       1.71010000
N       -2.92450000      -2.90840000       0.61440000
C       -2.13340000      -1.89390000       0.25840000
H       -1.14400000       1.39400000       0.32850000
H       -0.48690000       1.25530000      -1.37350000
H        1.88030000       1.34660000      -0.43200000
H        1.18010000       1.48900000       1.24980000
H        0.71310000      -0.84840000      -0.73670000
H        0.69770000      -1.18410000       1.87930000
H       -2.73200000      -4.15430000       2.21510000
H       -2.33870000      -1.30220000      -0.61730000
