21
Properties=species:S:1:pos:R:3 gdb_111593=T pbc="F F F"
C       -0.00650000       1.59990000      -0.09900000
C        0.04970000       0.08500000       0.12820000
C       -1.31950000      -0.57490000       0.06410000
C       -2.02510000      -0.79730000      -1.30410000
O       -1.03920000      -1.52700000      -2.05200000
C       -1.03450000      -2.70910000      -1.23370000
C       -2.46270000      -3.25590000      -1.45020000
C       -2.84180000      -1.99610000      -0.65910000
C       -1.50310000      -2.09940000       0.15930000
H        0.98920000       2.04940000      -0.03410000
H       -0.41180000       1.83690000      -1.08860000
H       -0.64270000       2.09160000       0.64590000
H        0.70080000      -0.37720000      -0.62070000
H        0.49880000      -0.12340000       1.10830000
H       -2.02170000      -0.09910000       0.76070000
H       -2.46530000      -0.00440000      -1.90670000
H       -0.12480000      -3.28750000      -1.38420000
H       -2.79330000      -3.37780000      -2.48470000
H       -2.66250000      -4.15810000      -0.86550000
H       -3.81570000      -1.79530000      -0.21730000
H       -1.38070000      -2.69300000       1.06380000
