18
Properties=species:S:1:pos:R:3 gdb_108438=T pbc="F F F"
C        0.01590000       1.54730000      -0.00370000
C       -0.06840000       0.01360000       0.00010000
C        0.68370000      -0.57650000      -1.16000000
O        0.13990000      -0.23220000      -2.46480000
C        0.15940000      -1.60890000      -2.90210000
C        0.83360000      -2.06910000      -1.59560000
N        2.28040000      -1.88050000      -1.53880000
C        2.24340000      -0.53090000      -1.22170000
O        3.10020000       0.30070000      -1.10070000
H        1.05640000       1.87710000       0.05580000
H       -0.41510000       1.95070000      -0.92400000
H       -0.53270000       1.96580000       0.84450000
H        0.35370000      -0.38890000       0.92910000
H       -1.11440000      -0.31140000      -0.05010000
H       -0.85930000      -1.99200000      -3.03700000
H        0.73430000      -1.75360000      -3.82350000
H        0.44400000      -2.93030000      -1.05430000
H        3.01700000      -2.40640000      -1.98990000
