19
Properties=species:S:1:pos:R:3 gdb_98167=T pbc="F F F"
C       -0.06740000       1.34880000       0.10310000
O        0.01710000      -0.07670000      -0.02120000
C        0.64800000      -0.52140000      -1.12880000
O        1.11310000       0.20660000      -1.96400000
C        0.67330000      -2.06220000      -1.14630000
C        1.42690000      -2.57170000       0.10970000
C       -0.78360000      -2.59380000      -1.14010000
C        1.36020000      -2.52490000      -2.35310000
C        1.91210000      -2.97270000      -3.32120000
H        0.93100000       1.79210000       0.13390000
H       -0.61450000       1.77670000      -0.74050000
H       -0.59770000       1.53410000       1.03720000
H        0.91960000      -2.23590000       1.01640000
H        1.45570000      -3.66420000       0.09950000
H        2.45620000      -2.20380000       0.12240000
H       -1.33050000      -2.24160000      -2.01860000
H       -0.77320000      -3.68650000      -1.16080000
H       -1.30410000      -2.25810000      -0.24090000
H        2.40520000      -3.34040000      -4.18680000
