14
Properties=species:S:1:pos:R:3 gdb_10671=T pbc="F F F"
N        0.18350000       0.96350000      -0.76830000
C       -0.02960000       0.02020000       0.17660000
O        0.72440000      -0.19250000       1.11150000
C       -1.29680000      -0.80730000       0.01070000
C       -1.10240000      -2.27730000       0.27820000
N       -1.77440000      -1.44400000       1.26000000
C       -2.29040000      -0.35720000      -0.92660000
C       -3.08360000       0.03940000      -1.73980000
H        0.99060000       1.55790000      -0.68070000
H       -0.50390000       1.14950000      -1.47910000
H       -1.73790000      -2.97880000      -0.25300000
H       -0.08270000      -2.59560000       0.47340000
H       -1.09080000      -1.18380000       1.97390000
H       -3.80760000       0.37590000      -2.44040000
