16
Properties=species:S:1:pos:R:3 gdb_67536=T pbc="F F F"
N       -0.01730000       1.48270000       0.11080000
C        0.03200000       0.06860000      -0.03910000
C        1.21240000      -0.63500000       0.68950000
N        0.96580000      -2.09300000       0.67610000
C        1.55920000      -1.44140000      -0.51110000
C        0.38640000      -0.80480000      -1.31820000
N       -0.93840000      -1.40120000      -1.20440000
C       -1.30050000      -0.74260000      -0.03180000
O       -2.28010000      -0.80080000       0.65520000
H        0.87580000       1.91820000      -0.09640000
H       -0.72220000       1.90220000      -0.48570000
H        1.83440000      -0.17370000       1.44730000
H        1.72300000      -2.53420000       1.19640000
H        2.52530000      -1.74360000      -0.89590000
H        0.63910000      -0.36520000      -2.28340000
H       -1.23140000      -2.33290000      -1.46540000
