12
Properties=species:S:1:pos:R:3 gdb_17156=T pbc="F F F"
N       -0.02170000      -1.10320000       0.03290000
C       -0.03100000       0.05280000       0.05290000
C       -0.05110000       1.48950000       0.05160000
N       -0.69530000       2.33140000       1.10900000
C       -0.15480000       3.34780000       0.14970000
C        1.13120000       2.51140000      -0.11670000
O        1.03260000       2.58480000      -1.56010000
C       -0.35080000       2.48380000      -1.14250000
H       -1.71380000       2.27050000       1.03660000
H       -0.25360000       4.42320000       0.28140000
H        2.10640000       2.52070000       0.36440000
H       -1.13910000       2.45870000      -1.89490000
