16
Properties=species:S:1:pos:R:3 gdb_45872=T pbc="F F F"
O        0.01130000      -0.05030000      -0.01950000
C        0.00010000       1.15990000       0.00170000
N       -1.16240000       1.89040000       0.07810000
C       -1.23390000       3.28660000      -0.01180000
C       -0.19330000       4.01880000      -0.40780000
C        1.09160000       3.33920000      -0.79750000
C        1.28450000       2.02130000      -0.00470000
C        1.68070000       2.27290000       1.37910000
C        2.00340000       2.49250000       2.51570000
H       -2.00630000       1.34670000       0.17790000
H       -2.19300000       3.70860000       0.26300000
H       -0.27870000       5.09630000      -0.46240000
H        1.08480000       3.10550000      -1.87240000
H        1.95440000       3.98790000      -0.62420000
H        2.04740000       1.40140000      -0.48490000
H        2.29330000       2.67520000       3.52080000
