12
Properties=species:S:1:pos:R:3 gdb_5674=T pbc="F F F"
O       -0.08510000       1.27850000       0.00990000
C        1.20950000       1.79540000       0.00010000
C        2.15290000       0.81320000      -0.01450000
C        1.42370000      -0.42990000      -0.01370000
C        0.11850000      -0.03880000       0.00110000
O       -0.77600000      -1.02700000       0.00480000
C        0.02080000      -2.17070000      -0.00870000
C        1.34900000      -1.86930000      -0.02030000
H        1.25880000       2.87050000       0.00530000
H        3.21930000       0.97520000      -0.02420000
H       -0.52930000      -3.09570000      -0.00790000
H        2.15050000      -2.59100000      -0.03190000
