18
Properties=species:S:1:pos:R:3 gdb_67200=T pbc="F F F"
C        0.00690000       1.56980000      -0.15330000
C       -0.00860000       0.08460000      -0.08350000
C       -0.01050000      -1.04820000      -1.07130000
C        1.24020000      -1.59640000      -0.41360000
N        0.91120000      -0.78700000       0.82640000
C       -0.35980000      -1.49460000       1.30460000
C       -0.86130000      -0.94300000       2.55090000
C       -1.30390000      -0.49820000       3.57610000
C       -1.06430000      -0.97040000       0.05670000
H        0.98610000       1.94310000      -0.47240000
H       -0.74130000       1.92280000      -0.87080000
H       -0.22280000       2.00800000       0.82330000
H       -0.30800000      -1.03170000      -2.11330000
H        1.34360000      -2.67390000      -0.24050000
H        2.16010000      -1.20910000      -0.85910000
H       -0.22810000      -2.57930000       1.40310000
H       -1.68310000      -0.10520000       4.48670000
H       -2.12480000      -0.89800000      -0.14930000
