18
Properties=species:S:1:pos:R:3 gdb_8190=T pbc="F F F"
C       -0.00080000       1.53330000       0.02570000
C        0.03820000       0.01890000       0.06940000
C       -1.19020000      -0.67070000      -0.50200000
C        1.32700000      -0.74420000      -0.17890000
O        2.46590000      -0.01950000       0.29980000
C        1.97110000      -0.07890000       1.66380000
C        0.68330000      -0.75560000       1.20090000
O       -0.03310000      -1.67860000       1.93440000
H        0.97260000       1.96500000       0.26820000
H       -0.26980000       1.87600000      -0.97970000
H       -0.74610000       1.93180000       0.72300000
H       -1.36610000      -0.33980000      -1.53110000
H       -1.08540000      -1.75870000      -0.50180000
H       -2.08120000      -0.43180000       0.08810000
H        1.48160000      -1.47910000      -0.96150000
H        2.60350000      -0.73900000       2.27300000
H        1.90550000       0.90660000       2.13790000
H        0.55280000      -2.40810000       2.16740000
