23
Properties=species:S:1:pos:R:3 gdb_76789=T pbc="F F F"
C       -0.22890000       1.54400000      -0.02230000
C       -0.02760000       0.03140000       0.00240000
C        1.14340000      -0.50330000      -0.90300000
C        1.66210000       0.30370000      -2.08360000
C        1.99730000      -0.58350000       0.36810000
C        3.34900000      -1.07910000       0.61140000
O        3.07300000       0.33150000       0.57240000
C        0.74830000      -0.52090000       1.25530000
C        0.81280000       0.26590000       2.55570000
H        0.70480000       2.08700000       0.15320000
H       -0.62420000       1.86870000      -0.99040000
H       -0.94270000       1.85470000       0.74770000
H       -0.98700000      -0.46350000      -0.17730000
H        0.89970000      -1.52150000      -1.23010000
H        1.99210000       1.29900000      -1.77750000
H        2.51950000      -0.19710000      -2.54630000
H        0.89110000       0.41490000      -2.85330000
H        3.61880000      -1.47140000       1.59180000
H        3.94960000      -1.45670000      -0.21600000
H        0.40740000      -1.54340000       1.45880000
H        1.22670000       1.26510000       2.40210000
H       -0.18120000       0.36690000       3.00410000
H        1.45230000      -0.24450000       3.28400000
