21
Properties=species:S:1:pos:R:3 gdb_112962=T pbc="F F F"
C       -0.09270000       1.50190000       0.30070000
C       -0.07390000      -0.02780000       0.24660000
O        0.37700000      -0.58570000       1.47290000
C       -1.44270000      -0.59560000      -0.12100000
C       -1.62870000      -2.12650000      -0.11920000
C       -2.72720000      -1.86030000       0.92670000
C       -2.60610000      -2.49180000       2.29930000
O       -3.47920000      -1.86800000       3.22180000
O       -2.38170000      -0.44380000       0.98380000
H        0.87890000       1.87590000       0.63250000
H       -0.31620000       1.93030000      -0.68200000
H       -0.85760000       1.85010000       1.00350000
H        0.64460000      -0.36210000      -0.51290000
H       -0.32660000      -0.40760000       2.11000000
H       -1.82850000      -0.10150000      -1.02260000
H       -1.94940000      -2.57740000      -1.05830000
H       -0.76470000      -2.66130000       0.28000000
H       -3.75280000      -1.97520000       0.55330000
H       -2.88980000      -3.54930000       2.25190000
H       -1.55610000      -2.43960000       2.62970000
H       -3.31150000      -0.92030000       3.15710000
