18
Properties=species:S:1:pos:R:3 gdb_55128=T pbc="F F F"
N        0.11250000       1.19430000      -0.38260000
C        0.02870000      -0.01670000       0.23670000
O        0.92580000      -0.46540000       0.93010000
C       -1.26120000      -0.79220000       0.03280000
C       -2.04890000      -0.85300000      -1.32610000
C       -1.91050000      -2.38280000      -1.30540000
C       -0.43840000      -2.73590000      -1.31170000
C       -1.09120000      -2.31000000      -0.02610000
O       -1.14900000      -3.11980000       1.08740000
H        0.92510000       1.76580000      -0.21660000
H       -0.65010000       1.57590000      -0.91340000
H       -1.94280000      -0.52620000       0.84790000
H       -3.07580000      -0.49400000      -1.23340000
H       -1.57520000      -0.36010000      -2.18240000
H       -2.67700000      -3.08800000      -1.59950000
H       -0.22940000      -3.79990000      -1.34900000
H        0.28370000      -2.11050000      -1.83320000
H       -0.30530000      -3.01250000       1.54500000
