18
Properties=species:S:1:pos:R:3 gdb_35427=T pbc="F F F"
C        0.62040000      -0.93510000       0.67420000
C        0.25870000       0.14370000       0.28480000
C       -0.21340000       1.44840000      -0.18620000
C       -1.08080000       2.18950000       0.90500000
N       -0.36400000       3.27980000       1.57590000
C        0.12210000       4.23040000       0.50490000
C        1.29840000       3.26740000       0.26080000
C        1.08050000       2.85540000       1.73310000
O        0.89500000       2.24390000      -0.64090000
H        0.94730000      -1.88800000       1.01060000
H       -0.83350000       1.27880000      -1.07360000
H       -1.97490000       2.61260000       0.43740000
H       -1.40620000       1.45870000       1.65030000
H       -0.56840000       4.39990000      -0.32570000
H        0.40920000       5.18360000       0.95850000
H        2.26720000       3.62590000      -0.09540000
H        1.58540000       3.52050000       2.43880000
H        1.24420000       1.81470000       2.01770000
