14
Properties=species:S:1:pos:R:3 gdb_29545=T pbc="F F F"
N        0.10410000       1.42880000       0.14860000
C        0.01400000       0.04720000       0.01570000
C       -1.03400000      -0.81010000      -0.03290000
O       -0.59680000      -2.13290000      -0.04530000
C        0.74730000      -2.06280000      -0.03290000
N        1.71280000      -2.93620000      -0.04820000
C        2.84140000      -2.13020000      -0.00460000
C        2.54010000      -0.78840000       0.03590000
N        1.15170000      -0.75780000       0.01550000
H        0.68540000       1.85620000      -0.56530000
H       -0.80540000       1.87210000       0.15060000
H       -2.09770000      -0.65730000      -0.04220000
H        3.82680000      -2.57120000      -0.00260000
H        3.14530000       0.09870000       0.09350000
