18
Properties=species:S:1:pos:R:3 gdb_9167=T pbc="F F F"
C       -0.02330000       1.50930000       0.27860000
C       -0.06780000       0.02680000      -0.08270000
C        0.79610000      -0.32930000      -1.28730000
O        1.36750000       0.50350000      -1.94420000
C        0.88470000      -1.83670000      -1.59520000
C        1.58810000      -2.17010000      -2.82130000
C        2.17030000      -2.43900000      -3.83890000
C        2.87680000      -2.75500000      -5.07140000
H        0.99310000       1.81800000       0.53700000
H       -0.34350000       2.12380000      -0.56610000
H       -0.67570000       1.71940000       1.13060000
H        0.24260000      -0.60150000       0.76320000
H       -1.09520000      -0.29180000      -0.31000000
H        1.36670000      -2.31060000      -0.72700000
H       -0.13750000      -2.24070000      -1.60290000
H        3.73420000      -3.41080000      -4.88370000
H        2.22220000      -3.26250000      -5.78860000
H        3.25380000      -1.84570000      -5.55230000
