16
Properties=species:S:1:pos:R:3 gdb_84183=T pbc="F F F"
C       -0.12100000       1.58570000       0.06250000
C        0.01970000       0.05850000      -0.03470000
C        0.80360000      -0.46180000      -1.20930000
C        1.82110000      -1.22150000      -0.76260000
N        1.80890000      -1.27690000       0.64900000
C        0.78560000      -0.51370000       1.17730000
O        0.56120000      -0.33330000       2.35130000
C        2.81330000      -1.91650000      -1.49100000
C        3.67210000      -2.51630000      -2.08450000
H        0.85670000       2.07250000       0.00200000
H       -0.74610000       1.97170000      -0.74750000
H       -0.57880000       1.84890000       1.01960000
H       -0.98660000      -0.38440000      -0.01310000
H        0.58330000      -0.26650000      -2.24730000
H        2.50520000      -1.73900000       1.21040000
H        4.42320000      -3.04170000      -2.62110000
