19
Properties=species:S:1:pos:R:3 gdb_16152=T pbc="F F F"
C        0.26830000       1.47850000       0.23820000
C       -0.16170000       0.04640000      -0.10390000
C        0.51270000      -0.48520000      -1.34780000
C        0.16780000       0.12230000      -2.71580000
C        0.37910000      -1.01940000      -3.68800000
C        0.70110000      -2.15290000      -3.05750000
C        0.82880000      -1.93060000      -1.58740000
N        1.88680000      -0.97730000      -1.16220000
H        1.35300000       1.52710000       0.37530000
H       -0.00370000       2.18150000      -0.55670000
H       -0.20700000       1.82340000       1.16140000
H        0.08420000      -0.61640000       0.73240000
H       -1.25040000       0.00280000      -0.23830000
H       -0.87270000       0.47550000      -2.73550000
H        0.78980000       0.99520000      -2.95370000
H        0.29710000      -0.89500000      -4.76190000
H        0.88740000      -3.11110000      -3.52850000
H        0.61080000      -2.72140000      -0.87630000
H        2.46740000      -0.74800000      -1.96740000
