17
Properties=species:S:1:pos:R:3 gdb_37140=T pbc="F F F"
C       -0.04640000       1.56620000      -0.00290000
C        1.45850000       1.97900000       0.01350000
C        2.10670000       0.83410000       0.74580000
O        1.44980000       0.40820000       1.94690000
C        1.19660000      -0.33710000       0.74860000
C       -0.07470000       0.00600000       0.01820000
C        2.38570000      -1.25890000       0.49560000
O        3.01740000      -0.81640000      -0.71690000
C        3.29300000      -0.09140000       0.49280000
H       -0.53510000       1.94810000       0.89590000
H       -0.57700000       1.97650000      -0.86580000
H        1.86950000       2.01310000      -1.00160000
H        1.61340000       2.95990000       0.47200000
H       -0.98590000      -0.38490000       0.48000000
H       -0.00860000      -0.40370000      -0.99580000
H        2.56740000      -2.27920000       0.80920000
H        4.32730000      -0.01450000       0.80370000
