21
Properties=species:S:1:pos:R:3 gdb_112918=T pbc="F F F"
C       -0.63560000       1.03240000       0.30760000
O       -0.30780000      -0.34340000       0.37640000
C        0.88660000      -0.61640000       1.08120000
O        0.77800000      -0.35490000       2.45080000
C        0.39930000      -1.55740000       3.17470000
C       -0.83830000      -1.27740000       4.01290000
C        0.24300000      -2.65130000       2.11110000
C        1.11510000      -2.13310000       0.95130000
O        0.81970000      -2.64760000      -0.32030000
H        0.15110000       1.60290000      -0.20790000
H       -1.56530000       1.11560000      -0.25940000
H       -0.77960000       1.45450000       1.30870000
H        1.69690000       0.01070000       0.68440000
H        1.24090000      -1.79440000       3.83960000
H       -1.68950000      -1.03580000       3.36900000
H       -1.09630000      -2.15280000       4.61820000
H       -0.66280000      -0.43410000       4.68700000
H        0.55150000      -3.63540000       2.46900000
H       -0.79510000      -2.71740000       1.76900000
H        2.17110000      -2.34660000       1.14950000
H        0.05840000      -2.14180000      -0.63440000
