22
Properties=species:S:1:pos:R:3 gdb_78593=T pbc="F F F"
C       -0.17850000       1.61900000      -0.03920000
C        0.04910000       0.11020000      -0.01270000
C        0.63270000      -0.69580000      -1.17610000
N        2.12900000      -0.92450000      -1.01140000
C        2.50730000      -0.24730000       0.27470000
C        3.10590000       1.14960000       0.19630000
C        1.12230000      -0.61090000       0.85680000
C        1.13970000      -1.74340000      -0.26100000
C        1.07950000      -3.23240000      -0.23530000
H        0.67230000       2.18590000      -0.41600000
H       -1.03680000       1.85330000      -0.67900000
H       -0.41110000       1.99100000       0.96510000
H       -0.90860000      -0.36640000       0.23380000
H        0.26050000      -0.79960000      -2.18790000
H        3.24640000      -0.90990000       0.74180000
H        2.57200000       1.79700000      -0.49950000
H        3.11030000       1.62930000       1.18130000
H        4.14270000       1.08570000      -0.14950000
H        0.96480000      -0.73490000       1.92850000
H        0.11750000      -3.58550000       0.15240000
H        1.20810000      -3.62870000      -1.24740000
H        1.87040000      -3.65490000       0.39480000
