21
Properties=species:S:1:pos:R:3 gdb_61943=T pbc="F F F"
C       -0.08780000       1.62110000       0.06270000
C       -0.00580000       0.09120000      -0.00550000
C        0.70400000      -0.41480000      -1.27230000
C       -0.02400000      -0.06090000      -2.58620000
C        0.62670000      -0.63500000      -3.75780000
C        1.18400000      -1.11970000      -4.70620000
C        0.71280000      -0.48130000       1.24340000
C        0.02920000      -0.19560000       2.49900000
C       -0.55450000       0.04150000       3.52310000
H        0.91260000       2.06770000       0.00590000
H       -0.68520000       2.03420000      -0.75470000
H       -0.54550000       1.94090000       1.00270000
H       -1.02830000      -0.31060000      -0.00090000
H        1.72390000      -0.01150000      -1.31150000
H        0.80560000      -1.50510000      -1.22180000
H       -1.06180000      -0.41650000      -2.53420000
H       -0.08140000       1.02740000      -2.70520000
H        1.66650000      -1.54210000      -5.55230000
H        0.81770000      -1.56810000       1.13240000
H        1.73510000      -0.07990000       1.28420000
H       -1.06000000       0.24580000       4.43410000
