16
Properties=species:S:1:pos:R:3 gdb_37386=T pbc="F F F"
N       -0.02420000       1.50090000       0.05530000
C        1.27490000       0.79250000      -0.02630000
C        0.00210000       0.03200000      -0.01970000
C       -0.26400000      -0.59420000      -1.38990000
O       -0.26580000       0.38880000      -2.39930000
C        1.10070000       0.66530000      -2.60690000
C        1.84200000      -0.54700000      -2.14240000
O        0.85990000      -1.44150000      -1.66760000
C        1.96350000       0.76640000      -1.35630000
H       -0.18940000       1.77660000       1.02050000
H        1.90930000       0.77720000       0.85570000
H       -0.28110000      -0.56230000       0.84370000
H       -1.17840000      -1.18570000      -1.45490000
H        1.28800000       1.23940000      -3.50370000
H        2.67010000      -1.03850000      -2.63380000
H        2.89670000       1.30920000      -1.46610000
