18
Properties=species:S:1:pos:R:3 gdb_86830=T pbc="F F F"
C       -0.24480000       1.54330000      -0.00220000
C        0.07170000       0.05110000       0.00660000
C        0.85000000      -0.50440000      -1.19590000
C        1.47290000      -1.83640000      -0.67960000
C        1.85810000      -1.51520000       0.78570000
C        0.91150000      -0.38450000       1.21500000
O        0.86050000       0.09390000       2.31690000
C        0.50620000      -2.93410000      -0.75570000
N       -0.26500000      -3.79330000      -0.81480000
H        0.66320000       2.13560000      -0.15820000
H       -0.95490000       1.79470000      -0.79500000
H       -0.67370000       1.83820000       0.95870000
H       -0.86780000      -0.51680000       0.09710000
H        0.23480000      -0.65220000      -2.08510000
H        1.66650000       0.17710000      -1.46220000
H        2.34390000      -2.12330000      -1.27490000
H        1.80010000      -2.36520000       1.46770000
H        2.88290000      -1.12980000       0.82990000
