18
Properties=species:S:1:pos:R:3 gdb_70382=T pbc="F F F"
C       -0.07930000       1.54790000       0.05280000
C        0.04650000       0.05170000       0.02810000
C       -0.84640000      -0.87150000       0.81620000
C        0.63590000      -0.94220000       1.04000000
C        1.26850000      -1.77080000      -0.07800000
C        0.66720000      -0.75540000      -1.12860000
O       -0.29070000      -1.22900000      -2.04940000
C        1.72980000      -0.01800000      -1.83030000
N        2.56700000       0.53830000      -2.40180000
H        0.86030000       2.03710000      -0.22310000
H       -0.85320000       1.88820000      -0.64450000
H       -0.35940000       1.89200000       1.05320000
H       -1.41770000      -0.36990000       1.59070000
H       -1.37020000      -1.68810000       0.32850000
H        1.09730000      -0.72950000       1.99570000
H        2.35940000      -1.77380000      -0.07900000
H        0.89750000      -2.79410000      -0.19160000
H        0.16140000      -1.72640000      -2.74080000
