17
Properties=species:S:1:pos:R:3 gdb_53995=T pbc="F F F"
C        0.07510000       1.53900000       0.04470000
C        0.12000000       0.03490000      -0.09250000
O        1.13440000      -0.55460000      -0.38500000
C       -1.19100000      -0.74910000       0.11650000
C       -2.10130000      -0.21900000       1.25220000
C       -2.03350000      -0.68210000      -1.17320000
O       -1.79590000       0.02360000      -2.11450000
C       -0.90780000      -2.24070000       0.35730000
O       -1.77980000      -3.01430000       0.66350000
H        1.05760000       1.94910000      -0.19070000
H       -0.67300000       1.94580000      -0.64310000
H       -0.21240000       1.83350000       1.05930000
H       -2.46920000       0.78690000       1.03730000
H       -2.95300000      -0.89180000       1.37230000
H       -1.55520000      -0.19590000       2.19970000
H       -2.91920000      -1.35120000      -1.13670000
H        0.14070000      -2.54810000       0.20290000
