20
Properties=species:S:1:pos:R:3 gdb_69847=T pbc="F F F"
C        0.00200000       1.46630000      -0.06140000
C       -0.01220000      -0.03980000      -0.03170000
C       -0.88560000      -0.82190000       0.92560000
C        0.61390000      -0.94240000       1.01050000
N        1.36480000      -1.96900000       0.21500000
C        0.39530000      -2.28840000      -0.90610000
C        0.52950000      -0.79280000      -1.27230000
O        0.14000000      -0.22140000      -2.47910000
C        2.01280000      -1.02240000      -0.78880000
H        0.96760000       1.85260000      -0.40690000
H       -0.76530000       1.85320000      -0.74040000
H       -0.18870000       1.88020000       0.93380000
H       -1.32230000      -0.22670000       1.72320000
H       -1.52780000      -1.63520000       0.61190000
H        1.14310000      -0.58920000       1.88800000
H        0.89170000      -2.94800000      -1.62280000
H       -0.56020000      -2.72570000      -0.62130000
H        0.54940000      -0.71290000      -3.19850000
H        2.56010000      -0.18780000      -0.34430000
H        2.64620000      -1.57440000      -1.49030000
