17
Properties=species:S:1:pos:R:3 gdb_88268=T pbc="F F F"
C        0.24960000       1.52730000      -0.64090000
C        0.02800000       0.12980000      -0.12970000
O        1.16710000      -0.68720000       0.07740000
C        0.40760000      -0.34270000       1.23460000
C        1.05980000       0.57520000       2.21900000
O        2.00940000       1.28390000       1.97230000
C        0.42100000       0.60010000       3.62900000
C        1.08110000       1.50900000       4.63360000
O       -0.55250000      -0.07990000       3.85950000
H        1.08410000       2.00640000      -0.12760000
H        0.47420000       1.49210000      -1.71200000
H       -0.65630000       2.12820000      -0.50890000
H       -0.81970000      -0.40050000      -0.56950000
H       -0.17890000      -1.14510000       1.67330000
H        2.12860000       1.21960000       4.76650000
H        1.09680000       2.53650000       4.25680000
H        0.54780000       1.45720000       5.58270000
