19
Properties=species:S:1:pos:R:3 gdb_41416=T pbc="F F F"
C       -0.01870000       1.48850000       0.00130000
C        1.54960000       1.52640000      -0.01960000
C        1.52390000       0.04790000      -0.37080000
O        2.43420000      -0.89660000       0.12200000
C        1.86150000      -2.15470000      -0.28870000
C        0.92120000      -1.82470000      -1.45940000
C       -0.22950000      -0.82700000      -1.25270000
C        1.12240000      -0.38680000      -1.80080000
C        0.00650000      -0.07700000       0.04210000
H       -0.47960000       1.96700000       0.86670000
H       -0.47640000       1.89090000      -0.90520000
H        2.04780000       2.20900000      -0.71320000
H        1.95400000       1.68070000       0.98460000
H        2.67480000      -2.81910000      -0.59820000
H        1.33770000      -2.61710000       0.55850000
H        0.79090000      -2.55420000      -2.24980000
H       -1.15890000      -0.93860000      -1.80220000
H        1.42390000       0.02860000      -2.75310000
H       -0.29210000      -0.51980000       0.99540000
