18
Properties=species:S:1:pos:R:3 gdb_102360=T pbc="F F F"
C        0.13280000       1.62520000       0.10600000
C        0.10630000       0.09610000       0.05880000
C        0.74120000      -0.49010000      -1.22660000
O        2.07840000      -0.04160000      -1.26820000
C        2.81020000      -0.39410000      -2.43820000
C        0.71130000      -2.02740000      -1.07250000
O       -0.13110000      -2.75420000      -1.51430000
C       -0.02440000      -0.06890000      -2.41850000
N       -0.59690000       0.28650000      -3.35660000
H        1.15680000       1.99790000       0.03900000
H       -0.44560000       2.05520000      -0.71680000
H       -0.30270000       1.97540000       1.04580000
H        0.66670000      -0.31940000       0.90410000
H       -0.91920000      -0.28100000       0.12580000
H        2.84330000      -1.48200000      -2.58940000
H        2.38320000       0.07350000      -3.33320000
H        3.82540000      -0.02570000      -2.28360000
H        1.56090000      -2.38460000      -0.44870000
