21
Properties=species:S:1:pos:R:3 gdb_41793=T pbc="F F F"
C       -0.02770000       1.56410000      -0.22460000
C        1.46660000       1.96130000      -0.23770000
C        2.21840000       0.63020000       0.00560000
C        2.74990000       0.47170000       1.43550000
C        1.74860000       0.58160000       2.55970000
C        0.45840000       0.23870000       2.57100000
C       -0.37440000      -0.35870000       1.46300000
C       -0.01530000       0.03650000       0.02530000
O        1.29330000      -0.39960000      -0.33480000
H       -0.58810000       2.09190000       0.55090000
H       -0.50050000       1.78810000      -1.18370000
H        1.75000000       2.38620000      -1.20360000
H        1.70370000       2.70100000       0.53070000
H        3.06480000       0.51570000      -0.68020000
H        3.25110000      -0.50520000       1.50340000
H        3.54000000       1.21930000       1.58480000
H        2.16510000       0.95000000       3.49580000
H       -0.07050000       0.35580000       3.51540000
H       -0.32340000      -1.45520000       1.53480000
H       -1.42890000      -0.10140000       1.62850000
H       -0.70440000      -0.48610000      -0.64710000
