19
Properties=species:S:1:pos:R:3 gdb_58337=T pbc="F F F"
C       -0.35280000       1.19320000       0.71180000
C       -0.44620000      -0.26950000       0.28800000
O       -0.57710000      -1.14360000       1.40330000
C       -1.55590000      -0.49870000      -0.75860000
O       -1.26130000       0.20170000      -1.96010000
C       -1.82390000      -1.98110000      -1.06330000
O       -2.66140000      -2.56760000      -0.06640000
C       -2.13710000      -3.51870000       0.73490000
O       -2.75180000      -3.99910000       1.63830000
H        0.49010000       1.34100000       1.39160000
H       -0.23060000       1.83900000      -0.16110000
H       -1.27030000       1.50010000       1.22920000
H        0.50400000      -0.57200000      -0.17850000
H       -1.35300000      -0.87690000       1.91020000
H       -2.49710000      -0.06720000      -0.39540000
H       -0.40130000      -0.09510000      -2.27960000
H       -2.35940000      -2.03970000      -2.01490000
H       -0.88440000      -2.54410000      -1.15380000
H       -1.10830000      -3.80280000       0.45040000
