15
Properties=species:S:1:pos:R:3 gdb_16118=T pbc="F F F"
N        0.04380000      -1.14610000      -0.10480000
C        0.04020000       0.00920000      -0.03770000
C        0.01530000       1.43680000       0.05680000
C        0.33320000       2.30090000      -1.15240000
C        1.28160000       2.28820000       0.00820000
C        1.06440000       3.35730000       1.06500000
O       -0.34550000       3.41190000       1.26150000
C       -0.86540000       2.09940000       1.11940000
H        0.63660000       1.78280000      -2.05380000
H       -0.29230000       3.17470000      -1.30200000
H        2.25390000       1.82260000      -0.09190000
H        1.59070000       3.08360000       1.99260000
H        1.38790000       4.35720000       0.76040000
H       -1.91590000       2.18870000       0.82940000
H       -0.80220000       1.52760000       2.05750000
