18
Properties=species:S:1:pos:R:3 gdb_82327=T pbc="F F F"
O        0.35270000       0.99400000      -0.63560000
C        0.11090000      -0.23890000       0.02290000
C        0.55600000      -0.29710000       1.47700000
C       -0.21740000       0.52400000       2.44210000
N       -0.49270000      -0.91440000       2.32370000
C       -1.63560000      -1.21630000       1.44250000
C       -1.39480000      -0.50440000       0.11330000
C       -2.37950000       0.33160000      -0.58280000
O       -2.06200000      -0.98890000      -1.04430000
H        1.29280000       1.05180000      -0.83060000
H        0.57020000      -1.06680000      -0.53810000
H        1.58100000      -0.58310000       1.69700000
H        0.23770000       0.81940000       3.38250000
H       -0.93690000       1.23450000       2.04160000
H       -1.66210000      -2.29900000       1.27390000
H       -2.57680000      -0.92870000       1.92040000
H       -3.37570000       0.44770000      -0.15680000
H       -2.03330000       1.14060000      -1.21980000
