21
Properties=species:S:1:pos:R:3 gdb_15420=T pbc="F F F"
C        0.33550000      -2.79690000       0.17450000
C       -0.06550000      -1.47100000       0.83230000
C       -1.54930000      -1.19900000       0.68170000
C       -2.52640000      -1.62650000       1.72060000
N       -2.26910000      -0.20460000       1.48080000
C       -1.56350000       0.54890000       2.51730000
C       -2.56770000       1.43340000       3.25550000
O       -3.61190000       0.67920000       3.84580000
H        1.41210000      -2.97090000       0.26120000
H       -0.18270000      -3.64060000       0.64170000
H        0.08200000      -2.80150000      -0.89130000
H        0.21350000      -1.48720000       1.89070000
H        0.50120000      -0.65010000       0.37290000
H       -1.88540000      -1.21630000      -0.35590000
H       -3.51410000      -1.99070000       1.44760000
H       -2.12140000      -2.06200000       2.63350000
H       -1.05050000      -0.09930000       3.24480000
H       -0.80710000       1.18600000       2.04200000
H       -2.06560000       1.96370000       4.07200000
H       -2.96620000       2.18460000       2.55710000
H       -4.08030000       0.25590000       3.11820000
