17
Properties=species:S:1:pos:R:3 gdb_36467=T pbc="F F F"
C       -0.06380000      -1.18630000      -0.20320000
C       -0.07410000       0.01530000      -0.17850000
C       -0.04710000       1.47220000      -0.14270000
C        1.36210000       2.00580000       0.14810000
C        2.35320000       1.88140000      -1.03820000
N        2.05530000       3.28890000      -1.39870000
C        1.53300000       3.55130000      -0.04330000
C        0.34800000       4.40850000       0.02480000
N       -0.59250000       5.07630000       0.09960000
H       -0.07450000      -2.24790000      -0.22680000
H       -0.39750000       1.87680000      -1.10010000
H       -0.74430000       1.84080000       0.61970000
H        1.71770000       1.62900000       1.10720000
H        3.38390000       1.70390000      -0.70370000
H        2.10010000       1.15400000      -1.81500000
H        2.83940000       3.86520000      -1.68280000
H        2.27580000       3.94520000       0.66540000
