19
Properties=species:S:1:pos:R:3 gdb_119297=T pbc="F F F"
C       -0.07950000       1.24660000      -0.23250000
O       -0.03660000      -0.16130000      -0.15170000
C       -1.28680000      -0.74380000       0.11890000
C       -1.07520000      -2.25900000       0.21590000
C       -2.39220000      -3.06670000      -0.00620000
C       -1.88400000      -3.29000000      -1.45280000
N       -0.53050000      -2.87480000      -1.01360000
C       -0.30850000      -2.58240000       1.42870000
N        0.25690000      -2.84860000       2.40050000
H        0.93500000       1.58920000      -0.44610000
H       -0.75010000       1.58690000      -1.03690000
H       -0.41700000       1.69510000       0.71360000
H       -1.71670000      -0.35770000       1.05760000
H       -2.00290000      -0.53000000      -0.69270000
H       -2.42360000      -3.97970000       0.58720000
H       -3.32030000      -2.50940000       0.12780000
H       -1.92920000      -4.31170000      -1.84050000
H       -2.36080000      -2.61940000      -2.17940000
H       -0.02210000      -2.22430000      -1.60340000
