17
Properties=species:S:1:pos:R:3 gdb_82389=T pbc="F F F"
O        0.52120000       0.74100000      -0.85300000
C        0.01720000      -0.27160000       0.00530000
C        0.71260000      -0.21360000       1.35260000
O        0.49460000       0.98030000       2.11600000
C       -0.02540000      -0.25000000       2.62430000
C       -1.52860000      -0.41200000       2.67470000
C       -2.23200000      -0.23430000       1.34730000
O       -2.03720000       0.99840000       0.65070000
C       -1.49670000      -0.19780000       0.07400000
H        0.28440000       1.57850000      -0.43360000
H        0.28630000      -1.22290000      -0.47140000
H        1.75290000      -0.53950000       1.33380000
H        0.50080000      -0.61370000       3.50830000
H       -1.75280000      -1.41940000       3.04960000
H       -1.94680000       0.29130000       3.40590000
H       -3.26450000      -0.58680000       1.32920000
H       -2.00210000      -0.51270000      -0.83930000
