19
Properties=species:S:1:pos:R:3 gdb_104704=T pbc="F F F"
C       -0.10950000       1.63760000       0.05940000
C        0.19750000       0.14040000       0.18710000
C        0.75900000      -0.50620000      -1.07370000
C        2.10220000       0.05510000      -1.53520000
O        2.56360000      -0.55740000      -2.72190000
C        0.63040000      -2.04440000      -1.15750000
C       -0.36420000      -1.75220000      -2.27410000
O       -1.06740000      -2.35620000      -3.01730000
O       -0.21150000      -0.38680000      -2.19890000
H        0.79590000       2.23840000      -0.06570000
H       -0.76230000       1.82260000      -0.79830000
H       -0.61930000       1.99770000       0.95730000
H        0.90770000      -0.03760000       1.00510000
H       -0.72180000      -0.39300000       0.45550000
H        2.02520000       1.14460000      -1.65220000
H        2.85490000      -0.14470000      -0.76450000
H        1.93710000      -0.33160000      -3.41890000
H        1.52170000      -2.56560000      -1.50740000
H        0.20840000      -2.54540000      -0.28510000
