20
Properties=species:S:1:pos:R:3 gdb_71739=T pbc="F F F"
C        0.04420000       1.50860000      -0.04230000
C        0.04380000      -0.00530000      -0.02490000
C        0.46340000      -0.72310000      -1.30410000
C        0.27460000      -2.13550000      -0.80700000
C        0.57430000      -2.17520000       0.64880000
C        0.70060000      -0.75370000       1.20460000
C       -0.66250000      -0.60210000       1.94550000
C       -1.21380000      -0.77290000       0.51180000
N       -0.84460000      -2.18910000       0.17540000
H        1.04580000       1.89760000      -0.25790000
H       -0.62990000       1.88840000      -0.81870000
H       -0.27620000       1.93930000       0.91080000
H       -0.18710000      -0.47700000      -2.15160000
H        1.50050000      -0.51390000      -1.59020000
H        0.38410000      -3.00190000      -1.44980000
H        0.94450000      -3.04860000       1.17410000
H        1.65190000      -0.44620000       1.63950000
H       -0.93420000      -1.36550000       2.67810000
H       -0.82770000       0.39410000       2.35970000
H       -2.23580000      -0.52240000       0.22580000
