17
Properties=species:S:1:pos:R:3 gdb_73644=T pbc="F F F"
C        0.04910000       1.59510000      -0.10890000
C       -0.01770000       0.08630000       0.04880000
C       -1.42900000      -0.52830000       0.02490000
O       -1.33110000      -1.76340000       0.71890000
C       -0.42380000      -1.56190000       1.79500000
C        0.65550000      -0.64640000       1.24110000
O        1.54940000      -1.34880000       0.31400000
C        0.98990000      -0.73030000      -0.77560000
O        1.28470000      -0.85740000      -1.91950000
H        1.07330000       1.96510000      -0.00750000
H       -0.31160000       1.88790000      -1.09990000
H       -0.57340000       2.09460000       0.64040000
H       -2.13260000       0.15600000       0.52860000
H       -1.79750000      -0.73360000      -0.98300000
H       -0.91830000      -1.06910000       2.64890000
H       -0.04580000      -2.53590000       2.11330000
H        1.22670000      -0.07710000       1.97430000
