14
Properties=species:S:1:pos:R:3 gdb_18463=T pbc="F F F"
C        0.16250000       0.92970000       0.32210000
O       -0.43860000      -0.04090000      -0.52310000
C        0.45280000      -0.63070000      -1.39330000
C        1.44020000      -1.66440000      -0.96050000
O        0.92760000      -2.37630000       0.19160000
C       -0.14380000      -2.84890000      -0.56130000
O       -0.96540000      -3.63490000      -0.23080000
C        0.24150000      -2.07780000      -1.80450000
H        0.92970000       0.47530000       0.96160000
H        0.61630000       1.74450000      -0.26020000
H       -0.63450000       1.33790000       0.94590000
H        0.80010000       0.00600000      -2.21220000
H        2.50430000      -1.71670000      -1.14420000
H        0.13380000      -2.40790000      -2.82730000
