17
Properties=species:S:1:pos:R:3 gdb_32149=T pbc="F F F"
C        0.00050000       1.37000000      -0.06810000
O       -0.05200000      -0.05550000      -0.09760000
C       -1.25820000      -0.63020000      -0.02120000
N       -2.33640000       0.15010000       0.07750000
C       -3.50160000      -0.49800000       0.14910000
C       -3.59670000      -1.87960000       0.12380000
C       -2.39700000      -2.59210000       0.01770000
C       -2.35930000      -4.09510000      -0.02050000
N       -1.22270000      -1.96320000      -0.05510000
H        1.05950000       1.62080000      -0.14110000
H       -0.55100000       1.80350000      -0.90700000
H       -0.41910000       1.76200000       0.86260000
H       -4.39080000       0.12390000       0.23000000
H       -4.55340000      -2.38270000       0.18330000
H       -1.88440000      -4.43460000      -0.94630000
H       -1.75130000      -4.47570000       0.80600000
H       -3.35960000      -4.52860000       0.04530000
