23
Properties=species:S:1:pos:R:3 gdb_120658=T pbc="F F F"
C       -0.05310000       1.37720000       0.25580000
C       -0.18090000      -0.11650000       0.49970000
O        1.09030000      -0.61750000       0.88500000
C        1.08210000      -1.98440000       1.14950000
C        2.24510000      -2.52840000       1.92190000
C        0.88040000      -2.47640000       2.55960000
C        0.42160000      -1.60690000       3.73560000
C       -0.75190000      -2.60950000       3.95220000
C       -0.04640000      -3.61800000       2.99570000
H        0.68530000       1.57550000      -0.52630000
H       -1.01380000       1.79670000      -0.05750000
H        0.26900000       1.88930000       1.16710000
H       -0.92650000      -0.32280000       1.28310000
H       -0.52270000      -0.63040000      -0.41410000
H        0.67330000      -2.59550000       0.34070000
H        2.65720000      -3.48870000       1.62750000
H        2.97680000      -1.80330000       2.26460000
H        1.13510000      -1.61120000       4.56600000
H        0.16450000      -0.56900000       3.50980000
H       -0.92860000      -2.94580000       4.97600000
H       -1.69540000      -2.24010000       3.54220000
H       -0.66180000      -4.08250000       2.21920000
H        0.48210000      -4.40980000       3.53710000
