17
Properties=species:S:1:pos:R:3 gdb_88215=T pbc="F F F"
C       -0.20170000       1.39560000       0.02480000
C        0.16630000      -0.07430000       0.01800000
O        0.44890000      -0.69020000       1.02570000
C        0.16080000      -0.71570000      -1.27980000
C        0.17150000      -1.25200000      -2.36640000
C        0.16730000      -1.98150000      -3.58770000
C        1.31750000      -2.97260000      -3.85370000
C       -0.02780000      -3.50140000      -3.48560000
O       -0.27600000      -4.10790000      -2.26740000
H        0.48920000       1.96050000      -0.61020000
H       -1.20540000       1.53460000      -0.39120000
H       -0.16520000       1.77480000       1.04700000
H       -0.26090000      -1.48010000      -4.44950000
H        1.65910000      -3.05520000      -4.87950000
H        2.09590000      -3.01730000      -3.10080000
H       -0.62800000      -3.94950000      -4.27120000
H       -0.10450000      -3.47290000      -1.55910000
