19
Properties=species:S:1:pos:R:3 gdb_38592=T pbc="F F F"
C       -0.05060000       1.57760000      -0.05400000
C        1.50050000       1.42250000      -0.04850000
C        1.27980000       0.18420000       0.90660000
C        2.14220000      -1.05410000       0.66220000
C        2.02230000      -1.19400000      -0.85740000
O        2.83930000      -0.15650000      -1.46190000
C        1.71190000       0.73790000      -1.41140000
C        0.70180000      -0.42790000      -1.22040000
C       -0.02100000       0.02860000       0.06450000
H       -0.42940000       2.05940000       0.85050000
H       -0.51860000       2.02600000      -0.93630000
H        2.16850000       2.24290000       0.21350000
H        1.12670000       0.47680000       1.94630000
H        3.18990000      -0.95010000       0.95730000
H        1.71400000      -1.91750000       1.18740000
H        2.23820000      -2.17960000      -1.27560000
H        1.67080000       1.40870000      -2.27320000
H        0.11850000      -0.77040000      -2.07210000
H       -0.87480000      -0.55140000       0.41580000
