20
Properties=species:S:1:pos:R:3 gdb_62758=T pbc="F F F"
C       -0.06550000       1.55040000       0.03780000
C        0.01880000       0.03860000      -0.00830000
C       -1.20030000      -0.66500000       0.56110000
C        0.69120000      -0.68540000      -1.16890000
C        1.63780000       0.05220000      -2.10060000
C        2.78330000       0.55700000      -1.20300000
O        3.69120000       1.29250000      -1.51760000
N        2.56500000       0.03800000       0.05300000
C        1.33990000      -0.68600000       0.20250000
H        0.84910000       2.04200000      -0.29970000
H       -0.88740000       1.90860000      -0.59270000
H       -0.26400000       1.89130000       1.06050000
H       -2.10010000      -0.42350000      -0.01640000
H       -1.08050000      -1.75330000       0.54650000
H       -1.37930000      -0.36180000       1.59910000
H        0.21060000      -1.58500000      -1.53550000
H        2.04930000      -0.61050000      -2.86840000
H        1.19510000       0.90730000      -2.61960000
H        3.10470000       0.38190000       0.83190000
H        1.37940000      -1.57370000       0.82580000
