19
Properties=species:S:1:pos:R:3 gdb_116064=T pbc="F F F"
C       -0.13210000       1.56750000       0.00620000
C        0.02770000       0.04540000      -0.00610000
C        0.73430000      -0.47570000      -1.25050000
C        0.96330000      -1.98830000      -1.23770000
C        1.30990000      -2.57520000      -2.59990000
O        1.81870000      -3.65170000      -2.74090000
O        0.94160000      -1.85810000      -3.69270000
C        0.58440000      -0.47270000      -3.56300000
O       -0.07770000      -0.17100000      -2.38830000
H        0.84240000       2.06820000      -0.00290000
H       -0.69210000       1.90440000      -0.86980000
H       -0.66720000       1.89680000       0.90140000
H        0.59750000      -0.28570000       0.87060000
H       -0.95460000      -0.43890000       0.05460000
H        1.70190000       0.04310000      -1.36740000
H        1.74890000      -2.28260000      -0.53780000
H        0.04100000      -2.48950000      -0.91800000
H        1.51240000       0.11360000      -3.66060000
H       -0.08800000      -0.25950000      -4.39550000
