15
Properties=species:S:1:pos:R:3 gdb_28654=T pbc="F F F"
N       -0.03900000       1.38490000      -0.12300000
C        0.02260000       0.01210000      -0.05610000
N       -1.15300000      -0.63180000      -0.04110000
C       -1.13940000      -1.96090000      -0.02900000
C        0.02390000      -2.74320000      -0.02260000
C        1.24750000      -2.04800000      -0.03250000
C        1.25510000      -0.66960000      -0.05110000
C       -0.03940000      -4.16180000      -0.00370000
C       -0.09560000      -5.36550000       0.01220000
H        0.75460000       1.90850000       0.20840000
H       -0.94050000       1.77410000       0.10760000
H       -2.10970000      -2.45100000      -0.01870000
H        2.17870000      -2.60380000      -0.02610000
H        2.18800000      -0.11650000      -0.06640000
H       -0.14660000      -6.42560000       0.02610000
