19
Properties=species:S:1:pos:R:3 gdb_34394=T pbc="F F F"
C       -0.04960000      -1.18630000      -0.44190000
C       -0.04130000      -0.01170000      -0.18020000
C       -0.01990000       1.40240000       0.11820000
C       -0.41650000       2.35400000      -1.06810000
C        0.97700000       3.03540000      -1.01070000
C        1.39050000       2.12430000       0.17890000
O        1.49550000       2.75140000       1.43680000
C        0.17740000       2.99280000       1.91840000
C       -0.64200000       1.76890000       1.48380000
H       -0.05870000      -2.22360000      -0.66800000
H       -0.62670000       1.81980000      -1.99510000
H       -1.26550000       3.00430000      -0.84100000
H        1.58600000       2.89080000      -1.90550000
H        0.97660000       4.09900000      -0.76140000
H        2.27970000       1.51020000       0.03080000
H        0.23590000       3.12000000       3.00200000
H       -0.23510000       3.91890000       1.48790000
H       -1.71380000       1.97220000       1.41420000
H       -0.49060000       0.94510000       2.18580000
