18
Properties=species:S:1:pos:R:3 gdb_115421=T pbc="F F F"
C        0.02890000       1.54750000       0.04900000
C        0.03050000       0.01700000       0.02500000
C        0.76340000      -0.54160000      -1.17550000
O        2.13690000      -0.22940000      -1.12380000
C        2.76220000      -1.16230000      -1.97700000
C        1.88540000      -2.44370000      -1.79410000
O        0.70410000      -1.96890000      -1.17060000
C        1.59740000      -3.11020000      -3.07410000
N        1.39300000      -3.63340000      -4.08360000
H        1.04910000       1.93850000       0.08790000
H       -0.45620000       1.95950000      -0.84260000
H       -0.51270000       1.91840000       0.92330000
H        0.50790000      -0.38990000       0.92250000
H       -0.99290000      -0.37140000      -0.00510000
H        0.33270000      -0.16920000      -2.12330000
H        2.74530000      -0.83060000      -3.02380000
H        3.79500000      -1.30480000      -1.65630000
H        2.36290000      -3.16980000      -1.12740000
