19
Properties=species:S:1:pos:R:3 gdb_10530=T pbc="F F F"
C       -0.18240000       1.36480000       0.15540000
O       -0.27240000      -0.03220000       0.32810000
C        0.89340000      -0.59630000       0.91560000
C        0.73050000      -2.09990000       0.90670000
C        1.02420000      -2.78140000      -0.41810000
O        0.53580000      -2.06140000      -1.53620000
C        0.92850000      -2.84860000       2.17440000
N       -0.42790000      -2.64360000       1.64670000
H        0.64180000       1.63820000      -0.52020000
H       -1.12610000       1.70130000      -0.27980000
H       -0.02900000       1.88120000       1.11580000
H        1.78690000      -0.30200000       0.34380000
H        1.01030000      -0.21720000       1.94430000
H        2.11020000      -2.86650000      -0.55640000
H        0.60950000      -3.79960000      -0.37550000
H       -0.26130000      -1.59670000      -1.25580000
H        1.28050000      -3.87640000       2.13980000
H        1.24680000      -2.29400000       3.05360000
H       -0.89680000      -1.89140000       2.14630000
