17
Properties=species:S:1:pos:R:3 gdb_108728=T pbc="F F F"
C       -0.01270000       1.40800000       0.14980000
N       -0.04220000      -0.02430000      -0.06740000
C        0.58370000      -0.61340000      -1.10950000
C        1.22380000      -0.03590000      -2.16680000
C        1.72310000      -1.05870000      -3.08400000
O        2.28830000      -0.91830000      -4.14870000
C        1.37480000      -2.40910000      -2.44990000
N        2.03700000      -2.61160000      -1.13000000
C        0.63750000      -2.11160000      -1.20850000
H        1.00270000       1.77580000       0.34880000
H       -0.39700000       1.92790000      -0.73400000
H       -0.65110000       1.65670000       0.99950000
H       -0.29390000      -0.60900000       0.71200000
H        1.40580000       1.01880000      -2.31400000
H        1.16690000      -3.26500000      -3.08090000
H        2.00800000      -3.61040000      -0.91930000
H       -0.18010000      -2.72000000      -0.83600000
