17
Properties=species:S:1:pos:R:3 gdb_87940=T pbc="F F F"
O       -0.27090000       1.31900000      -0.38100000
C       -0.16470000      -0.05890000      -0.18810000
C       -0.25260000      -0.64280000       1.21410000
C       -1.40200000      -0.77350000       0.26340000
C       -2.74880000      -0.08700000       0.41370000
C       -3.57800000      -0.79630000      -0.66430000
C       -2.86870000      -2.13320000      -0.85810000
O       -3.26090000      -3.11890000      -1.40800000
O       -1.62650000      -2.06410000      -0.28960000
H        0.53320000       1.73290000      -0.05000000
H        0.46470000      -0.59160000      -0.90020000
H        0.33140000      -1.53070000       1.42890000
H       -0.37610000       0.05030000       2.04050000
H       -3.16430000      -0.27520000       1.40890000
H       -2.66140000       0.99020000       0.27160000
H       -4.62570000      -0.95940000      -0.40960000
H       -3.54910000      -0.26440000      -1.62180000
