18
Properties=species:S:1:pos:R:3 gdb_51069=T pbc="F F F"
O        0.24770000      -0.20570000       0.00590000
C        0.11170000       0.98040000      -0.14600000
C        1.23060000       1.99870000      -0.00060000
C        1.28820000       2.94080000      -1.15860000
C        1.68280000       2.85770000      -2.60600000
C        0.30870000       3.37560000      -2.98510000
N        0.15600000       3.92490000      -1.57800000
C        1.21270000       5.01380000      -1.56860000
C        2.28090000       3.94090000      -1.67580000
H       -0.87480000       1.42370000      -0.40670000
H        1.04230000       2.56750000       0.92260000
H        2.17840000       1.46490000       0.11870000
H        2.31560000       2.12200000      -3.08720000
H        0.20730000       4.12650000      -3.77660000
H       -0.41900000       2.57540000      -3.14400000
H        1.10310000       5.75960000      -2.36390000
H        1.20960000       5.51320000      -0.59620000
H        3.34560000       3.98670000      -1.48160000
