18
Properties=species:S:1:pos:R:3 gdb_74890=T pbc="F F F"
C       -0.00140000       1.48600000      -0.16620000
C       -0.01010000      -0.00850000      -0.01250000
C       -1.12780000      -0.75280000      -0.04120000
C       -1.12020000      -2.22950000       0.01300000
N       -0.30100000      -2.92000000      -1.02710000
C        0.14720000      -2.92860000       0.36830000
C        1.36360000      -2.09420000       0.68300000
C        1.31900000      -0.65880000       0.15440000
O        2.34900000      -0.04530000      -0.04380000
H        0.59870000       1.77530000      -1.03470000
H       -1.01420000       1.87820000      -0.28710000
H        0.46410000       1.96890000       0.69970000
H       -2.09520000      -0.26590000      -0.14500000
H       -2.05850000      -2.70130000       0.29000000
H       -0.73270000      -3.81250000      -1.25690000
H        0.06230000      -3.86150000       0.92170000
H        1.47490000      -2.01550000       1.77360000
H        2.27960000      -2.56040000       0.30840000
