16
Properties=species:S:1:pos:R:3 gdb_24648=T pbc="F F F"
C        1.00750000      -0.65320000      -0.82960000
C       -0.40900000      -0.94130000      -1.20470000
N       -0.09580000      -0.14350000      -0.02750000
C       -0.33920000      -0.62590000       1.26200000
C        0.64230000      -0.61540000       2.25890000
N        0.39840000      -1.00200000       3.50920000
C       -0.84550000      -1.40560000       3.77270000
N       -1.86190000      -1.46170000       2.91070000
C       -1.60260000      -1.07200000       1.66440000
H        1.59000000      -1.47680000      -0.42200000
H        1.57910000       0.09340000      -1.37220000
H       -0.88070000      -0.40690000      -2.02360000
H       -0.76750000      -1.95630000      -1.04630000
H        1.65170000      -0.27930000       2.02950000
H       -1.05090000      -1.72220000       4.79160000
H       -2.42320000      -1.10800000       0.95050000
