19
Properties=species:S:1:pos:R:3 gdb_73116=T pbc="F F F"
O       -0.05750000       1.41800000      -0.16910000
C        0.02550000       0.01790000      -0.00600000
C        0.36810000      -0.81720000      -1.27190000
C       -0.85610000      -1.72630000      -0.97540000
C       -1.37700000      -0.67830000       0.05370000
C       -1.61480000      -1.16500000       1.47720000
C       -0.20490000      -1.33520000       2.05590000
O        0.11160000      -2.06840000       2.95480000
C        0.74980000      -0.40560000       1.28640000
H        0.83640000       1.76530000      -0.26380000
H        0.22030000      -0.20980000      -2.16820000
H        1.35260000      -1.29100000      -1.31680000
H       -1.51470000      -1.94960000      -1.81640000
H       -0.57890000      -2.67290000      -0.50110000
H       -2.16970000      -0.04560000      -0.34640000
H       -2.13030000      -0.40360000       2.07840000
H       -2.18510000      -2.09330000       1.56380000
H        1.71790000      -0.89230000       1.14060000
H        0.91340000       0.47950000       1.91310000
