15
Properties=species:S:1:pos:R:3 gdb_27691=T pbc="F F F"
C        0.12080000       1.44960000       0.00490000
C       -0.05720000      -0.02540000       0.01270000
C       -1.16240000      -0.82130000      -0.07460000
C       -0.70280000      -2.17410000      -0.00770000
N       -1.48180000      -3.31090000       0.00970000
C        0.66900000      -2.09590000       0.11210000
O        1.06200000      -0.77070000       0.12980000
C        1.63340000      -3.10660000       0.20340000
N        2.38630000      -3.98950000       0.26870000
H        0.75850000       1.76560000      -0.82780000
H       -0.84750000       1.94410000      -0.09210000
H        0.59620000       1.79330000       0.92990000
H       -2.18480000      -0.48870000      -0.16540000
H       -2.35060000      -3.24840000      -0.49900000
H       -0.98980000      -4.17380000      -0.17410000
