17
Properties=species:S:1:pos:R:3 gdb_132740=T pbc="F F F"
C       -0.01320000       1.51330000      -0.02530000
C       -0.01310000       0.00760000       0.02170000
C       -0.01530000      -0.72280000      -1.15780000
F       -0.00850000      -0.06110000      -2.33850000
C       -0.01370000      -2.11910000      -1.21160000
N       -0.07820000      -2.76680000      -2.44450000
C       -0.00290000      -2.80480000       0.00850000
C        0.00070000      -2.10290000       1.20890000
C       -0.00680000      -0.71100000       1.22120000
H        0.86460000       1.89740000      -0.55620000
H       -0.89270000       1.89700000      -0.55340000
H       -0.01140000       1.93170000       0.98380000
H        0.22740000      -2.19670000      -3.21980000
H        0.34310000      -3.68390000      -2.45910000
H       -0.00270000      -3.89040000       0.00370000
H        0.00880000      -2.65080000       2.14510000
H       -0.00560000      -0.17050000       2.16160000
