23
Properties=species:S:1:pos:R:3 gdb_110578=T pbc="F F F"
C        0.07550000       1.60360000       0.11100000
C       -0.18670000       0.10670000      -0.09350000
C        0.59820000      -0.48060000      -1.26030000
C        2.10140000      -0.79950000      -1.10090000
C        1.83270000      -2.14950000      -0.35000000
C        2.74520000      -2.94350000      -1.30480000
C        2.05370000      -1.90540000      -2.20790000
C        0.68810000      -2.01860000      -1.43130000
C       -0.42570000      -2.99600000      -1.69460000
H        1.13290000       1.79570000       0.32280000
H       -0.19010000       2.17630000      -0.78470000
H       -0.50910000       2.00210000       0.94610000
H        0.05670000      -0.43710000       0.82820000
H       -1.25980000      -0.05220000      -0.26650000
H        0.35520000       0.05310000      -2.19120000
H        2.93940000      -0.12470000      -0.91600000
H        1.69710000      -2.28020000       0.72470000
H        3.82450000      -2.82740000      -1.16080000
H        2.49630000      -3.99650000      -1.47270000
H        2.16180000      -1.73730000      -3.28170000
H       -0.04730000      -4.02160000      -1.77010000
H       -1.17010000      -2.97460000      -0.89070000
H       -0.94250000      -2.76100000      -2.63220000
