19
Properties=species:S:1:pos:R:3 gdb_64310=T pbc="F F F"
C       -0.13930000       1.54820000       0.10910000
C       -0.00140000       0.01850000      -0.00160000
C       -1.36840000      -0.65010000      -0.11770000
O        0.70840000      -0.35990000      -1.19080000
C        2.07160000      -0.01490000      -1.25240000
C        2.82970000      -0.36640000      -0.01040000
C        2.20050000      -0.63700000       1.13760000
C        0.73720000      -0.49310000       1.25230000
O        0.14860000      -0.69140000       2.29660000
H        0.83190000       2.04170000       0.21440000
H       -0.63320000       1.93830000      -0.78560000
H       -0.73900000       1.80380000       0.98650000
H       -1.92450000      -0.22230000      -0.95620000
H       -1.24780000      -1.72220000      -0.29270000
H       -1.93070000      -0.50810000       0.80620000
H        2.48280000      -0.56170000      -2.10950000
H        2.21730000       1.05880000      -1.47560000
H        3.91510000      -0.38400000      -0.07980000
H        2.72630000      -0.91520000       2.04540000
