25
Properties=species:S:1:pos:R:3 gdb_94316=T pbc="F F F"
C        0.06410000       1.61490000      -0.06580000
C        0.04470000       0.09600000       0.03490000
C        1.01030000      -0.69400000      -0.90020000
C        1.43980000      -1.58590000       0.29840000
C        0.72520000      -0.60080000       1.23630000
C        1.35140000       0.08410000       2.42420000
C        0.18580000      -0.86480000       2.61860000
C       -1.16050000      -0.27580000       2.99590000
C        0.46710000      -2.21710000       3.24660000
H        1.08140000       2.00360000       0.05350000
H       -0.30740000       1.94280000      -1.04340000
H       -0.56440000       2.08610000       0.69830000
H       -0.98470000      -0.26550000      -0.08190000
H        0.56130000      -1.20080000      -1.75770000
H        1.82800000      -0.06320000      -1.26110000
H        0.97190000      -2.57580000       0.28040000
H        2.51530000      -1.71890000       0.44580000
H        2.33960000      -0.24190000       2.73760000
H        1.17340000       1.14700000       2.56030000
H       -1.32470000       0.69980000       2.52980000
H       -1.98160000      -0.93410000       2.68620000
H       -1.23880000      -0.14210000       4.08160000
H        0.45500000      -2.15080000       4.34130000
H       -0.28920000      -2.95590000       2.95390000
H        1.44450000      -2.60720000       2.94850000
