10
Properties=species:S:1:pos:R:3 gdb_133436=T pbc="F F F"
F        0.00500000       0.08510000      -0.23980000
C       -0.10200000       1.37000000      -0.05720000
N       -1.21270000       1.84520000       0.32210000
O       -1.24040000       3.24450000       0.49490000
C       -0.13970000       4.02690000       0.26680000
N       -0.16020000       5.27690000       0.42000000
C        1.13810000       3.36860000      -0.18260000
O        2.16170000       3.91190000      -0.41700000
O        1.06000000       1.98190000      -0.32340000
H       -1.08260000       5.59530000       0.72600000
