20
Properties=species:S:1:pos:R:3 gdb_62118=T pbc="F F F"
C       -0.08980000       1.47030000       0.03710000
C        0.03680000      -0.05610000       0.03120000
O       -1.23900000      -0.69150000       0.06460000
C       -1.89870000      -0.67770000       1.30420000
C       -3.11190000      -1.58870000       1.20670000
O       -3.91490000      -1.72100000       2.09040000
C        0.75400000      -0.54760000      -1.21510000
C        0.58800000      -1.93300000      -1.70780000
N        0.00460000      -0.79840000      -2.45380000
H        0.90270000       1.92940000      -0.00180000
H       -0.65950000       1.80780000      -0.83360000
H       -0.58570000       1.83250000       0.94210000
H        0.61400000      -0.37480000       0.91580000
H       -1.25000000      -1.05020000       2.11530000
H       -2.23970000       0.32630000       1.59770000
H       -3.18730000      -2.13140000       0.23840000
H        1.71020000      -0.05210000      -1.37330000
H        1.41350000      -2.43410000      -2.20510000
H       -0.08780000      -2.58160000      -1.15990000
H       -0.98900000      -0.75710000      -2.23560000
