19
Properties=species:S:1:pos:R:3 gdb_30939=T pbc="F F F"
C        0.25180000       1.64740000      -0.16030000
C       -0.02780000       0.14530000       0.02780000
C        0.60710000      -0.43270000       1.24760000
C        0.08360000      -0.94490000       2.37270000
C       -1.29640000      -1.15930000       2.86770000
O        1.11700000      -1.33840000       3.22490000
C        2.32180000      -1.07350000       2.60790000
N        3.48680000      -1.31200000       3.04940000
N        1.99970000      -0.49060000       1.40390000
H        1.32510000       1.84880000      -0.23390000
H       -0.22130000       2.01610000      -1.07510000
H       -0.13550000       2.22350000       0.68500000
H       -1.10700000      -0.02530000       0.08500000
H        0.32100000      -0.40140000      -0.85950000
H       -1.48010000      -2.21770000       3.08740000
H       -1.48270000      -0.59850000       3.79140000
H       -2.02360000      -0.83490000       2.12000000
H        3.43750000      -1.75100000       3.96460000
H        2.69420000      -0.28220000       0.70990000
