17
Properties=species:S:1:pos:R:3 gdb_20969=T pbc="F F F"
C        0.14560000       1.41600000       0.01560000
N       -0.30200000       0.03380000       0.02240000
C        0.00870000      -0.70470000       1.22980000
C       -0.13670000      -0.67140000      -1.17200000
C        0.03370000      -2.03810000      -1.34090000
N        0.09010000      -2.24880000      -2.68640000
N       -0.01270000      -1.12600000      -3.40540000
C       -0.14920000      -0.16120000      -2.49810000
H        1.23760000       1.52200000      -0.10610000
H       -0.34130000       1.96660000      -0.79330000
H       -0.14370000       1.89030000       0.95750000
H       -0.22870000      -0.09030000       2.10230000
H       -0.60610000      -1.60930000       1.28140000
H        1.06920000      -1.00790000       1.29690000
H        0.11560000      -2.84830000      -0.63680000
H        0.20600000      -3.12610000      -3.16270000
H       -0.25040000       0.86230000      -2.82360000
