20
Properties=species:S:1:pos:R:3 gdb_64102=T pbc="F F F"
C        0.01240000       1.56940000       0.04250000
C       -0.01980000       0.03900000       0.00070000
O       -1.36980000      -0.42350000      -0.06760000
C        0.66470000      -0.51420000      -1.25460000
C        0.56890000      -2.04210000      -1.29510000
C        0.96760000      -2.73370000       0.00100000
O        1.28610000      -3.90790000       0.04420000
N        0.90100000      -1.97170000       1.13770000
C        0.68840000      -0.53900000       1.23910000
H        1.03520000       1.95530000      -0.00680000
H       -0.55300000       1.97130000      -0.80220000
H       -0.44310000       1.94600000       0.96660000
H       -1.83580000      -0.11400000       0.71630000
H        0.19730000      -0.08080000      -2.14450000
H        1.71300000      -0.19340000      -1.25030000
H       -0.46590000      -2.33760000      -1.49610000
H        1.18410000      -2.46810000      -2.09080000
H        1.18240000      -2.46910000       1.97030000
H        1.64280000      -0.00930000       1.38090000
H        0.07830000      -0.32930000       2.12850000
