23
Properties=species:S:1:pos:R:3 gdb_121956=T pbc="F F F"
C        0.05190000       1.62980000       0.03510000
C       -0.00320000       0.09780000       0.01470000
C       -1.44190000      -0.44820000       0.05010000
C       -2.22630000      -0.09950000       1.31900000
C       -3.59800000      -0.76120000       1.35900000
O       -4.24340000      -0.35930000       2.55790000
C        0.73050000      -0.46700000      -1.22880000
C        2.15240000      -0.14840000      -1.27270000
C        3.32550000       0.11530000      -1.28670000
H        1.08480000       1.98010000      -0.04090000
H       -0.50930000       2.05080000      -0.80860000
H       -0.37410000       2.03660000       0.95590000
H        0.52580000      -0.27840000       0.90060000
H       -1.98590000      -0.07900000      -0.83170000
H       -1.40350000      -1.54160000      -0.05370000
H       -1.66460000      -0.41300000       2.20790000
H       -2.37020000       0.98270000       1.40510000
H       -4.18120000      -0.46120000       0.47230000
H       -3.48400000      -1.85720000       1.31540000
H       -5.11000000      -0.77470000       2.58740000
H        0.60780000      -1.55750000      -1.25490000
H        0.24280000      -0.08490000      -2.13660000
H        4.36200000       0.34380000      -1.30970000
