16
Properties=species:S:1:pos:R:3 gdb_10652=T pbc="F F F"
C       -0.05410000       1.34800000      -0.17730000
C        0.22980000      -0.10930000       0.07920000
O        1.58470000      -0.52620000       0.18740000
C        0.75120000      -0.67000000       1.35450000
C        1.17700000       0.15110000       2.54760000
O        2.35860000      -0.39090000       3.11600000
C        0.37940000      -2.10240000       1.66400000
O        0.26500000      -2.95620000       0.82430000
H        0.60150000       2.00550000       0.39600000
H        0.09380000       1.56610000      -1.24010000
H       -1.09510000       1.58190000       0.06840000
H       -0.37800000      -0.80740000      -0.49890000
H        1.30500000       1.20430000       2.27140000
H        0.41200000       0.10150000       3.33080000
H        3.02860000      -0.39130000       2.42230000
H        0.19080000      -2.30970000       2.73920000
