18
Properties=species:S:1:pos:R:3 gdb_107223=T pbc="F F F"
O        0.07980000       1.30230000      -0.46820000
C        0.04800000       0.04420000       0.18700000
C       -1.35200000      -0.51830000       0.22430000
C       -2.39600000       0.11420000       1.15480000
C       -3.39770000      -0.98940000       1.46620000
O       -4.09550000      -1.51670000       0.32510000
C       -2.95840000      -2.23910000       0.82450000
C       -1.68300000      -1.96670000       0.04460000
N       -1.80670000      -1.03090000      -1.08150000
H       -0.26740000       1.14660000      -1.35470000
H        0.71150000      -0.68200000      -0.30540000
H        0.42650000       0.21720000       1.20030000
H       -1.91500000       0.43620000       2.08570000
H       -2.87190000       0.99780000       0.71710000
H       -3.98660000      -0.95550000       2.37970000
H       -3.16650000      -3.23130000       1.21220000
H       -0.94460000      -2.75600000      -0.05220000
H       -2.79850000      -0.83590000      -1.21400000
