23
Properties=species:S:1:pos:R:3 gdb_89455=T pbc="F F F"
C       -0.49290000       1.41540000       0.22160000
C       -0.00170000      -0.00080000       0.01920000
C        1.17810000      -0.25370000      -0.94910000
C        1.78660000      -1.27140000       0.05820000
C        0.73400000      -0.86240000       1.13570000
C        1.26380000      -0.31300000       2.44090000
C       -0.46320000      -1.84130000       1.17250000
O       -1.20430000      -1.66180000       2.36740000
C       -1.08890000      -1.11770000      -0.05760000
H        0.33400000       2.10060000       0.44050000
H       -0.99920000       1.78740000      -0.67850000
H       -1.20630000       1.47370000       1.05100000
H        0.92450000      -0.62530000      -1.94710000
H        1.80810000       0.63320000      -1.06730000
H        1.72440000      -2.31930000      -0.25240000
H        2.82100000      -1.06850000       0.34620000
H        1.96140000       0.51330000       2.26250000
H        0.45400000       0.04710000       3.07970000
H        1.80650000      -1.08720000       2.99740000
H       -0.20620000      -2.90240000       1.03160000
H       -2.04760000      -2.11390000       2.26160000
H       -2.10470000      -0.76510000       0.14360000
H       -1.09440000      -1.69200000      -0.98900000
