15
Properties=species:S:1:pos:R:3 gdb_98940=T pbc="F F F"
N       -0.06400000       1.47580000       0.14130000
H        0.82420000       1.05480000      -0.09910000
H        0.07590000       2.47800000       0.20150000
H       -1.78460000       1.09070000      -0.51380000
C       -0.60890000       0.92980000       1.38940000
C       -2.12540000       0.81310000       1.27150000
O       -2.58480000       0.88930000       0.02790000
N       -2.83450000       0.65980000       2.31560000
C       -4.20030000       0.42000000       2.26580000
N       -4.72510000      -0.62830000       1.76470000
C       -4.98630000       1.44020000       2.95200000
N       -5.64730000       2.23470000       3.47180000
H       -0.21670000      -0.08130000       1.53980000
H       -0.36750000       1.50540000       2.28770000
H       -5.73390000      -0.63510000       1.91710000
