17
Properties=species:S:1:pos:R:3 gdb_50667=T pbc="F F F"
O       -0.35280000       0.13250000       0.25170000
C       -0.11880000       1.26620000      -0.08020000
C        1.23930000       1.92850000       0.03890000
C        1.47090000       2.93840000      -1.09930000
O        0.84300000       4.13510000      -0.65670000
C        1.14770000       4.28100000       0.72060000
C        1.27830000       2.85680000       1.27060000
C        0.90310000       2.43450000       2.62370000
O        2.27670000       2.61940000       2.25210000
H       -0.91550000       1.92510000      -0.49470000
H        2.00670000       1.15780000       0.13010000
H        2.54860000       3.08710000      -1.26530000
H        1.00750000       2.65470000      -2.04830000
H        2.10460000       4.80330000       0.87330000
H        0.34800000       4.86340000       1.18530000
H        0.50820000       3.16630000       3.32710000
H        0.60220000       1.40310000       2.80010000
