15
Properties=species:S:1:pos:R:3 gdb_29064=T pbc="F F F"
O       -0.04500000       1.35860000       0.00960000
C        0.03430000       0.01550000       0.00240000
C        1.25510000      -0.60600000      -0.00790000
C        1.59730000      -1.98140000      -0.01680000
C        0.77780000      -3.07220000      -0.01820000
C       -0.64260000      -3.07170000      -0.01080000
C       -1.51870000      -2.02950000      -0.00020000
C       -1.33340000      -0.58370000       0.00760000
O       -2.30250000       0.16490000       0.01830000
H        0.84400000       1.73360000       0.00610000
H        2.11230000       0.06860000      -0.00930000
H        2.66620000      -2.17790000      -0.02360000
H        1.25470000      -4.04740000      -0.02600000
H       -1.09810000      -4.05980000      -0.01410000
H       -2.57810000      -2.27260000       0.00400000
