15
Properties=species:S:1:pos:R:3 gdb_11280=T pbc="F F F"
O       -0.07470000       1.45770000       0.02720000
C        0.04290000       0.04250000      -0.01640000
C       -1.37010000      -0.57740000      -0.05570000
C       -1.28350000      -1.78580000      -1.01600000
C       -0.03110000      -1.48050000      -1.82140000
C        0.68580000      -0.48920000      -1.27890000
C        0.32040000      -2.21290000      -2.98900000
N        0.57840000      -2.82710000      -3.93670000
H        0.78940000       1.83170000       0.22620000
H        0.60970000      -0.31300000       0.86050000
H       -1.74100000      -0.84460000       0.93540000
H       -2.03510000       0.18640000      -0.46890000
H       -1.16210000      -2.73300000      -0.47630000
H       -2.16760000      -1.89790000      -1.65030000
H        1.62900000      -0.11870000      -1.66370000
