20
Properties=species:S:1:pos:R:3 gdb_20125=T pbc="F F F"
O       -0.21530000       1.50490000       0.11800000
C       -0.08910000       0.08800000      -0.00590000
C        0.69770000      -0.30240000      -1.23920000
C        0.31890000      -1.53260000      -2.02710000
C        0.07680000      -0.16110000      -2.60410000
C        0.49490000      -0.54100000       1.25260000
C        1.56180000       0.16480000       2.05300000
C        0.16700000       0.01280000       2.61110000
H        0.63070000       1.89570000      -0.12280000
H       -1.12100000      -0.27060000      -0.12580000
H        1.76410000      -0.09670000      -1.16190000
H        1.11370000      -2.13930000      -2.44640000
H       -0.54300000      -2.10190000      -1.69390000
H       -0.94580000       0.19830000      -2.65060000
H        0.70240000       0.17050000      -3.42530000
H        0.59220000      -1.62100000       1.17880000
H        2.36400000      -0.42810000       2.47790000
H        1.85980000       1.16180000       1.74640000
H       -0.44550000       0.90660000       2.63870000
H        0.00740000      -0.68090000       3.42910000
