16
Properties=species:S:1:pos:R:3 gdb_43743=T pbc="F F F"
N       -1.25110000       0.80770000      -0.39580000
C       -0.51860000      -0.17160000      -0.12810000
O        0.86160000      -0.33850000      -0.30120000
C        0.73750000      -1.73830000       0.08660000
C        1.51770000      -2.72180000      -0.74110000
C        1.21160000      -4.10680000      -0.40550000
C        0.94500000      -5.24240000      -0.11840000
C        0.29930000      -1.80720000       1.50160000
C       -0.73290000      -1.55330000       0.38930000
H       -0.70740000       1.58170000      -0.78100000
H        1.30710000      -2.53260000      -1.80110000
H        2.59010000      -2.53010000      -0.59940000
H        0.71860000      -6.25140000       0.12370000
H        0.23900000      -2.80390000       1.92630000
H        0.56700000      -1.01280000       2.19080000
H       -1.58870000      -2.18970000       0.22210000
