21
Properties=species:S:1:pos:R:3 gdb_80970=T pbc="F F F"
C       -0.00750000       1.45890000       0.07340000
C       -0.03080000      -0.03020000       0.02760000
C       -0.01740000      -0.88760000      -1.00270000
C        0.00380000      -2.27330000      -0.34660000
C        0.04690000      -3.52070000      -1.19610000
C       -1.04700000      -2.05330000       0.80190000
C       -0.01890000      -0.96410000       1.24200000
C        1.09140000      -1.98060000       0.75300000
O        1.33040000      -3.10470000       1.56480000
H        0.87510000       1.83060000       0.61030000
H        0.00500000       1.88790000      -0.93290000
H       -0.88220000       1.85890000       0.60240000
H        0.01640000      -0.68660000      -2.06570000
H        0.88070000      -3.48820000      -1.90690000
H        0.17420000      -4.40870000      -0.57030000
H       -0.87760000      -3.63790000      -1.77250000
H       -2.04130000      -1.70990000       0.50590000
H       -1.10170000      -2.89610000       1.49410000
H       -0.00970000      -0.52800000       2.24230000
H        2.02680000      -1.52890000       0.39540000
H        1.95240000      -2.85450000       2.25480000
