17
Properties=species:S:1:pos:R:3 gdb_88358=T pbc="F F F"
C       -0.50430000       1.31710000       0.10250000
N        0.02660000      -0.03780000       0.08300000
C        1.41390000      -0.24190000      -0.31370000
C        0.97290000      -0.48960000       1.08770000
C        1.47750000       0.42710000       2.21740000
C        0.53160000       0.48500000       3.33450000
C       -0.26570000       0.52330000       4.23060000
C        2.80120000      -0.03860000       2.66520000
N        3.84410000      -0.41360000       2.99030000
H        0.24540000       2.10280000       0.29050000
H       -0.95610000       1.52310000      -0.87220000
H       -1.28380000       1.39070000       0.86600000
H        1.61070000      -1.07010000      -0.98830000
H        2.03100000       0.64090000      -0.48570000
H        0.81010000      -1.50930000       1.42830000
H        1.61980000       1.43940000       1.82020000
H       -0.96440000       0.55920000       5.03020000
