19
Properties=species:S:1:pos:R:3 gdb_50379=T pbc="F F F"
O        0.06600000      -0.09300000      -0.62950000
C        0.02930000       1.03350000      -0.20910000
C        1.21030000       1.96440000      -0.08260000
O        2.48760000       1.37770000      -0.32780000
C        2.85450000       2.43180000      -1.25770000
C        3.09090000       1.90720000      -2.66790000
C        1.67550000       1.59170000      -3.18950000
C        0.80100000       2.71650000      -2.59190000
C        1.41450000       3.02160000      -1.21200000
H       -0.92820000       1.50170000       0.12440000
H        1.15590000       2.42970000       0.91630000
H        3.67030000       3.04120000      -0.85520000
H        3.56200000       2.69790000      -3.26590000
H        3.76010000       1.04240000      -2.66810000
H        1.62040000       1.55590000      -4.28040000
H        1.35290000       0.62090000      -2.80440000
H        0.87550000       3.61940000      -3.20910000
H       -0.25970000       2.45180000      -2.54610000
H        1.28760000       4.05660000      -0.89530000
