19
Properties=species:S:1:pos:R:3 gdb_72412=T pbc="F F F"
C        0.02860000       1.47870000       0.09130000
C       -0.02920000      -0.02540000      -0.04080000
C        0.68470000      -0.69220000      -1.23650000
C        0.42970000      -2.12170000      -0.71420000
C        0.98550000      -1.96520000       0.72210000
O        0.64850000      -0.62030000       1.09070000
C       -1.09410000      -2.10520000      -0.55300000
O       -1.86100000      -3.01430000      -0.72630000
C       -1.43220000      -0.66790000      -0.11140000
H        1.06760000       1.81940000       0.11840000
H       -0.47690000       1.95990000      -0.75130000
H       -0.46020000       1.80170000       1.01520000
H        0.20980000      -0.48590000      -2.19940000
H        1.74470000      -0.42940000      -1.28480000
H        0.81580000      -2.97470000      -1.26900000
H        0.54380000      -2.67330000       1.43280000
H        2.07580000      -2.09310000       0.73740000
H       -1.95520000      -0.65820000       0.84820000
H       -2.07650000      -0.19010000      -0.85840000
