21
Properties=species:S:1:pos:R:3 gdb_15826=T pbc="F F F"
C        0.21450000       1.57610000       0.00530000
C        0.08850000       0.04570000      -0.07510000
C        0.72810000      -0.60920000       1.15730000
C        0.83310000      -2.12580000       1.06410000
O        1.49310000      -2.58300000       2.23890000
N       -1.26610000      -0.50940000      -0.24180000
C       -2.43520000       0.17950000       0.28680000
C       -2.20500000       0.07370000      -1.18320000
H        1.27210000       1.85510000      -0.01970000
H       -0.27360000       2.08120000      -0.83340000
H       -0.20470000       1.97070000       0.93650000
H        0.63880000      -0.28730000      -0.96630000
H        1.73420000      -0.19980000       1.30480000
H        0.14830000      -0.34810000       2.05150000
H       -0.16970000      -2.56030000       0.96600000
H        1.40050000      -2.40200000       0.15910000
H        1.48800000      -3.54420000       2.22670000
H       -3.16980000      -0.45100000       0.78080000
H       -2.31770000       1.16540000       0.73040000
H       -1.93600000       0.98980000      -1.70560000
H       -2.76750000      -0.63620000      -1.78470000
