20
Properties=species:S:1:pos:R:3 gdb_68388=T pbc="F F F"
C       -0.05450000       1.50840000       0.03520000
C        0.06540000       0.00600000      -0.05150000
C        0.51490000      -0.67210000      -1.36430000
C       -0.56970000      -1.69050000      -0.96620000
C       -0.04150000      -2.77590000      -0.01240000
C        0.68040000      -2.12640000       1.16300000
N        1.96370000      -1.44390000       0.89160000
C        0.75070000      -0.64300000       1.15480000
O       -1.23970000      -0.66240000      -0.18180000
H        0.94020000       1.96660000       0.05950000
H       -0.60270000       1.90140000      -0.82490000
H       -0.58770000       1.80190000       0.94620000
H        0.21320000      -0.08050000      -2.23090000
H        1.54790000      -1.00380000      -1.44550000
H       -1.22090000      -2.10270000      -1.74170000
H       -0.89530000      -3.34450000       0.37210000
H        0.61150000      -3.47630000      -0.54640000
H        0.58310000      -2.62780000       2.12200000
H        2.54660000      -1.46900000       1.72460000
H        0.68050000      -0.10270000       2.09560000
