19
Properties=species:S:1:pos:R:3 gdb_50592=T pbc="F F F"
O        0.13130000      -0.09840000      -0.05850000
C        0.08900000       1.09430000       0.11150000
C        1.28090000       2.01820000       0.00510000
C        1.13420000       3.06830000      -1.12370000
C        2.15060000       4.16580000      -0.74510000
C        2.10570000       4.23550000       0.78770000
C        0.82900000       4.84750000       1.40010000
O        0.28670000       3.54300000       1.70130000
C        1.49750000       2.88420000       1.25980000
H       -0.86320000       1.61120000       0.35660000
H        2.17170000       1.40190000      -0.15940000
H        1.31140000       2.64220000      -2.11390000
H        0.11470000       3.47100000      -1.11870000
H        3.15450000       3.87010000      -1.06980000
H        1.92770000       5.12770000      -1.21770000
H        3.04410000       4.55780000       1.23910000
H        0.98630000       5.43730000       2.31140000
H        0.18510000       5.41410000       0.71530000
H        1.97990000       2.34450000       2.08110000
