18
Properties=species:S:1:pos:R:3 gdb_119864=T pbc="F F F"
C       -0.06130000       1.41280000       0.01070000
O        0.01730000       0.00690000       0.00290000
C       -1.24840000      -0.60870000       0.01090000
C       -1.08690000      -2.08860000       0.00230000
C        0.02400000      -2.82770000      -0.00960000
C       -0.32260000      -4.29430000      -0.01430000
N       -1.76730000      -4.26570000      -0.00290000
C       -2.28170000      -2.98990000       0.00660000
O       -3.45510000      -2.67360000       0.01640000
H        0.96150000       1.79670000       0.00370000
H       -0.59240000       1.79670000      -0.87440000
H       -0.57680000       1.78780000       0.90880000
H       -1.83430000      -0.30740000       0.89710000
H       -1.84950000      -0.29900000      -0.86220000
H        1.04120000      -2.46280000      -0.01540000
H        0.07660000      -4.80250000      -0.90450000
H        0.09030000      -4.81140000       0.86440000
H       -2.35850000      -5.07880000      -0.00390000
