19
Properties=species:S:1:pos:R:3 gdb_118791=T pbc="F F F"
C       -0.12610000       1.74420000       0.23270000
C       -0.18580000       0.23540000       0.14220000
C       -1.44270000      -0.37110000      -0.45770000
C       -1.64550000      -0.00640000      -1.93480000
O       -2.80350000      -0.61550000      -2.48160000
O        1.03080000      -0.39770000      -0.28310000
C        0.61260000      -0.59900000       1.07880000
C        1.43770000      -0.04770000       2.11960000
C        2.11590000       0.38430000       3.01350000
H        0.77080000       2.06460000       0.76470000
H       -0.11020000       2.18830000      -0.76730000
H       -1.00380000       2.13180000       0.76020000
H       -1.38030000      -1.46310000      -0.37450000
H       -2.32170000      -0.05110000       0.11400000
H       -1.80300000       1.07070000      -2.04650000
H       -0.74080000      -0.26740000      -2.50360000
H       -2.65440000      -1.56620000      -2.50220000
H        0.24680000      -1.60600000       1.28160000
H        2.71970000       0.76890000       3.79830000
