18
Properties=species:S:1:pos:R:3 gdb_77423=T pbc="F F F"
C       -0.12410000       1.61510000      -0.09770000
C        0.18190000       0.13130000       0.03740000
C        1.45130000      -0.69720000      -0.17880000
O        1.53860000      -1.68810000      -1.14150000
C        2.72880000      -0.18490000       0.55890000
N        2.44700000       1.09560000       1.25860000
C        2.01640000      -0.19820000       1.84960000
C        0.71990000      -0.71200000       1.16800000
O        0.02200000      -1.67160000       1.87960000
H       -0.20260000       1.88900000      -1.15690000
H       -1.09250000       1.83610000       0.36670000
H        0.63980000       2.22970000       0.36840000
H       -0.60630000      -0.47240000      -0.42950000
H        1.59430000      -1.26700000      -2.00760000
H        3.73420000      -0.51040000       0.32400000
H        3.30430000       1.36870000       1.74140000
H        2.34510000      -0.52960000       2.82560000
H       -0.67690000      -2.02220000       1.31740000
