16
Properties=species:S:1:pos:R:3 gdb_56783=T pbc="F F F"
O        0.29330000       1.54670000       0.00510000
C        0.14210000       0.14200000       0.03740000
C        0.67370000      -0.49400000      -1.18940000
N        1.11940000      -0.98140000      -2.13760000
C        0.77380000      -0.48930000       1.25000000
C        2.23790000      -0.74900000       1.46690000
C        1.23980000      -1.88390000       1.59700000
C        0.42670000      -1.68690000       2.87200000
O        0.10230000      -0.31570000       2.49750000
H        1.23140000       1.74520000       0.11370000
H       -0.93840000      -0.03400000       0.07530000
H        2.85290000      -0.80180000       0.57390000
H        2.71970000      -0.33370000       2.34740000
H        1.28600000      -2.77700000       0.98970000
H       -0.48270000      -2.29490000       2.91620000
H        0.95990000      -1.73940000       3.82750000
