19
Properties=species:S:1:pos:R:3 gdb_109446=T pbc="F F F"
C        0.10020000       1.56960000       0.14250000
C       -0.06010000       0.04610000       0.08910000
C        0.64830000      -0.57450000      -1.11380000
C        2.19230000      -0.61000000      -1.12210000
O        3.03660000       0.18370000      -0.81990000
C        2.22730000      -2.09080000      -1.54890000
C        0.71090000      -2.10570000      -1.29800000
C       -0.10540000      -3.14720000      -0.67560000
O       -0.21040000      -2.84100000      -2.07590000
H        1.15750000       1.84530000       0.17260000
H       -0.34560000       2.04250000      -0.73940000
H       -0.39090000       1.98340000       1.02820000
H        0.33620000      -0.40160000       1.00900000
H       -1.12390000      -0.21980000       0.04730000
H        0.29330000      -0.11230000      -2.04640000
H        2.48300000      -2.21360000      -2.60710000
H        2.86040000      -2.75180000      -0.95170000
H        0.33960000      -4.11350000      -0.44190000
H       -0.97200000      -2.87630000      -0.07450000
