13
Properties=species:S:1:pos:R:3 gdb_11168=T pbc="F F F"
N       -0.23240000       1.12880000       0.38660000
C       -0.06800000      -0.07230000       0.04510000
N       -0.98190000      -0.82430000      -0.69060000
C       -0.67070000      -2.23520000      -0.57060000
C        0.85470000      -2.13200000      -0.31680000
O        1.02280000      -0.86010000       0.30570000
C       -1.38980000      -2.91330000       0.52690000
N       -1.97210000      -3.44110000       1.37390000
H        0.58720000       1.48350000       0.87320000
H       -1.94130000      -0.51490000      -0.64860000
H       -0.87920000      -2.77670000      -1.49820000
H        1.23690000      -2.90830000       0.34630000
H        1.39320000      -2.15440000      -1.27020000
