16
Properties=species:S:1:pos:R:3 gdb_19018=T pbc="F F F"
O       -0.03760000       1.43660000       0.00490000
C        0.03250000       0.01790000       0.00600000
C        0.56760000      -0.58620000       1.34630000
C       -0.68420000      -1.29770000       1.84000000
C       -1.41070000      -1.95410000       0.62880000
O       -2.72420000      -1.70640000       1.23580000
C       -1.94930000      -0.47390000       1.45740000
C       -1.38470000      -0.52750000       0.00800000
H        0.86080000       1.78130000       0.00550000
H        0.60860000      -0.33880000      -0.86010000
H        1.40670000      -1.27370000       1.19680000
H        0.89540000       0.21210000       2.01960000
H       -0.68640000      -1.82970000       2.79050000
H       -1.24130000      -2.92180000       0.15440000
H       -2.43440000       0.34870000       1.98130000
H       -2.04990000      -0.30040000      -0.82300000
