18
Properties=species:S:1:pos:R:3 gdb_107374=T pbc="F F F"
O       -0.05620000       1.34690000       0.45660000
C       -0.00780000       0.00350000      -0.00430000
C       -1.41450000      -0.52260000      -0.04650000
C       -2.01820000      -1.12520000       1.20800000
C       -1.69660000      -2.00690000       0.02380000
N       -2.75190000      -2.26050000      -0.91200000
C       -3.27770000      -1.12480000      -1.49110000
O       -4.26830000      -1.08070000      -2.18340000
C       -2.37920000       0.05230000      -1.07310000
H        0.82490000       1.72460000       0.37710000
H        0.43620000      -0.05230000      -1.01170000
H        0.60570000      -0.62650000       0.66050000
H       -1.37110000      -1.18540000       2.07680000
H       -3.06450000      -0.94090000       1.42980000
H       -0.90280000      -2.74480000       0.07190000
H       -3.31000000      -3.10030000      -0.88920000
H       -3.00110000       0.86710000      -0.69510000
H       -1.85150000       0.43360000      -1.95420000
