17
Properties=species:S:1:pos:R:3 gdb_74840=T pbc="F F F"
C       -0.02190000       1.49480000       0.00970000
C       -0.06330000      -0.00710000      -0.00820000
N       -1.16190000      -0.63620000       0.14300000
C       -1.15160000      -2.05680000       0.05780000
C       -0.77200000      -2.72070000      -1.23050000
C        0.18340000      -2.81660000      -0.05440000
C        1.41270000      -1.99320000      -0.04430000
O        2.53880000      -2.42170000       0.09700000
N        1.17780000      -0.62590000      -0.19020000
H        0.63730000       1.85950000       0.80600000
H        0.36200000       1.88490000      -0.93980000
H       -1.02800000       1.87820000       0.17340000
H       -1.93640000      -2.52840000       0.63950000
H       -1.28800000      -3.63300000      -1.50580000
H       -0.49370000      -2.08380000      -2.06280000
H        0.30330000      -3.78110000       0.42320000
H        2.01370000      -0.05880000      -0.15800000
