18
Properties=species:S:1:pos:R:3 gdb_124595=T pbc="F F F"
C        0.09250000       1.49550000       0.04390000
C       -0.03540000      -0.02880000      -0.05120000
C       -1.48880000      -0.49780000      -0.01320000
N        0.64350000      -0.51770000      -1.25340000
C        0.16350000      -1.04540000      -2.39140000
N        1.14830000      -1.31350000      -3.23820000
C        2.23800000      -0.91020000      -2.53690000
O        3.48350000      -1.00280000      -3.02240000
N        2.00520000      -0.41970000      -1.33260000
H        1.14180000       1.78990000      -0.01820000
H       -0.45550000       1.98100000      -0.77050000
H       -0.31750000       1.84800000       0.99500000
H        0.50580000      -0.47730000       0.78910000
H       -2.07800000      -0.04930000      -0.81990000
H       -1.56490000      -1.58630000      -0.08600000
H       -1.93910000      -0.18850000       0.93330000
H       -0.88440000      -1.22450000      -2.57030000
H        3.40410000      -1.39010000      -3.90240000
