19
Properties=species:S:1:pos:R:3 gdb_6709=T pbc="F F F"
C        0.00700000       1.56900000       0.06940000
C        0.00500000       0.04130000       0.03090000
O        0.73890000      -0.50610000       1.12410000
C       -1.41580000      -0.53850000      -0.03530000
C       -1.42910000      -2.06590000      -0.13470000
C       -2.86120000      -2.63480000      -0.11520000
C       -2.89250000      -4.09220000      -0.21910000
N       -2.90160000      -5.24470000      -0.30350000
H        1.03170000       1.94470000       0.13130000
H       -0.46520000       1.99100000      -0.82350000
H       -0.54640000       1.93670000       0.94310000
H        0.55840000      -0.29300000      -0.85620000
H        0.36830000      -0.14310000       1.93670000
H       -1.96880000      -0.21810000       0.86090000
H       -1.94150000      -0.09960000      -0.89360000
H       -0.93020000      -2.38430000      -1.05710000
H       -0.85230000      -2.48730000       0.69290000
H       -3.37320000      -2.34340000       0.80980000
H       -3.45000000      -2.21770000      -0.94110000
