21
Properties=species:S:1:pos:R:3 gdb_106352=T pbc="F F F"
C        0.04830000       1.52530000       0.15890000
C       -0.05520000       0.01030000      -0.05590000
C        0.67850000      -0.49440000      -1.28250000
C        2.23570000      -0.41330000      -1.41590000
C        2.02790000      -1.55270000      -2.46710000
C        0.85260000      -2.02360000      -1.54930000
C        1.24530000      -0.79790000      -3.53040000
O        1.37150000      -0.81250000      -4.72480000
C        0.23330000       0.00120000      -2.67830000
H        1.09260000       1.84300000       0.24920000
H       -0.39820000       2.08210000      -0.67110000
H       -0.46990000       1.82530000       1.07450000
H        0.34130000      -0.50890000       0.82640000
H       -1.11240000      -0.27870000      -0.12920000
H        2.68690000       0.52410000      -1.75380000
H        2.74790000      -0.77820000      -0.52190000
H        2.82540000      -2.20900000      -2.80790000
H        1.21770000      -2.55850000      -0.66880000
H        0.02370000      -2.57150000      -2.00770000
H       -0.79790000      -0.26590000      -2.93290000
H        0.35520000       1.07760000      -2.83290000
