16
Properties=species:S:1:pos:R:3 gdb_32463=T pbc="F F F"
N        0.08630000       1.46160000      -0.12710000
C        0.05900000       0.05860000       0.02460000
C       -1.01930000      -0.77000000      -0.00580000
O       -2.33830000      -0.48880000      -0.05470000
O       -0.64410000      -2.07570000       0.06000000
C        0.72220000      -2.07900000       0.14840000
C        1.20750000      -0.80960000       0.13420000
C        2.64680000      -0.39320000       0.17220000
O        3.53320000      -1.44340000      -0.18250000
H        0.49890000       1.92530000       0.67580000
H       -0.85390000       1.82340000      -0.24210000
H       -2.75500000      -1.01710000      -0.74680000
H        1.19050000      -3.04530000       0.21340000
H        2.78300000       0.49410000      -0.46710000
H        2.94440000      -0.09530000       1.18560000
H        3.27940000      -1.73960000      -1.06340000
