19
Properties=species:S:1:pos:R:3 gdb_33174=T pbc="F F F"
C        0.02900000       1.53040000       0.05400000
C        0.02780000       0.00070000       0.01690000
C       -1.39420000      -0.57190000      -0.03040000
N       -1.42980000      -2.02250000      -0.04480000
C       -1.47890000      -2.86850000      -1.15080000
C       -1.44460000      -4.12410000      -0.69370000
O       -1.36340000      -4.10820000       0.68910000
C       -1.34190000      -2.79040000       1.09900000
N       -1.25780000      -2.35020000       2.28810000
H        1.04920000       1.92220000       0.09750000
H       -0.45200000       1.95450000      -0.83500000
H       -0.50820000       1.90440000       0.93230000
H        0.58950000      -0.35720000      -0.85490000
H        0.52580000      -0.40000000       0.90580000
H       -1.95330000      -0.24680000       0.85240000
H       -1.92730000      -0.21250000      -0.91790000
H       -1.54530000      -2.48890000      -2.15610000
H       -1.47120000      -5.08790000      -1.16860000
H       -1.22190000      -3.11590000       2.95480000
