19
Properties=species:S:1:pos:R:3 gdb_99294=T pbc="F F F"
C       -0.01780000       1.40520000       0.18610000
C        0.17100000      -0.09240000      -0.04270000
C        0.72300000      -0.41090000      -1.41660000
O        1.01310000       0.39430000      -2.26540000
O        0.85690000      -1.74560000      -1.58120000
C        1.38820000      -2.16430000      -2.84920000
C        1.37500000      -3.66410000      -2.87320000
C        2.34590000      -4.41120000      -3.68110000
O        2.48140000      -4.32920000      -2.26340000
H        0.92990000       1.93920000       0.08070000
H       -0.71340000       1.82850000      -0.54280000
H       -0.41110000       1.59170000       1.18900000
H        0.85260000      -0.52990000       0.69640000
H       -0.77150000      -0.64050000       0.07310000
H        0.77260000      -1.75050000      -3.65540000
H        2.40730000      -1.78410000      -2.96780000
H        0.40720000      -4.12190000      -2.66680000
H        2.07500000      -5.38910000      -4.07560000
H        3.09880000      -3.87230000      -4.25530000
