18
Properties=species:S:1:pos:R:3 gdb_115440=T pbc="F F F"
O       -0.07120000       1.35300000      -0.31970000
C       -0.00860000      -0.05980000      -0.21830000
C       -1.38090000      -0.55460000       0.23360000
C       -2.45030000      -0.29230000      -0.83870000
O       -2.41170000      -1.44660000      -1.68300000
C       -2.27490000      -2.56700000      -0.83090000
C       -1.41080000      -2.09750000       0.37930000
C       -3.59870000      -3.06540000      -0.39390000
N       -4.63100000      -3.45350000      -0.04830000
H        0.75520000       1.66980000      -0.69530000
H        0.24070000      -0.52340000      -1.18640000
H        0.75500000      -0.37600000       0.51010000
H       -1.63480000      -0.05440000       1.17160000
H       -3.44840000      -0.17970000      -0.39270000
H       -2.23230000       0.58030000      -1.45530000
H       -1.79370000      -3.36220000      -1.40710000
H       -0.40810000      -2.52790000       0.31290000
H       -1.84550000      -2.41720000       1.32700000
