16
Properties=species:S:1:pos:R:3 gdb_43283=T pbc="F F F"
O       -0.05570000      -0.04480000       0.11980000
C       -0.05820000       1.15650000       0.01020000
C       -1.27680000       2.03920000      -0.14620000
C       -0.95760000       3.33650000       0.00520000
C        0.51800000       3.48430000       0.15920000
C        1.44810000       3.88350000       1.32630000
C        2.07780000       2.44450000       1.26550000
C        1.10730000       2.11230000       0.11450000
N        1.36840000       3.08320000      -0.97610000
H       -2.25440000       1.62780000      -0.36590000
H       -1.65350000       4.16820000      -0.03140000
H        2.11260000       4.72490000       1.12110000
H        0.90390000       4.06380000       2.25470000
H        3.13490000       2.38170000       1.00290000
H        1.88700000       1.85680000       2.16450000
H        0.76390000       2.86240000      -1.76550000
