18
Properties=species:S:1:pos:R:3 gdb_39806=T pbc="F F F"
C        0.00970000       1.55620000      -0.05150000
N        1.23800000       0.72360000       0.05510000
C       -0.06550000       0.09080000       0.00200000
C       -0.52530000      -0.94390000       1.03010000
C       -2.03580000      -0.84760000       1.29750000
C       -2.76290000      -0.77740000      -0.03190000
C       -2.05640000      -0.81670000      -1.16230000
C       -0.55520000      -0.96170000      -1.00040000
O       -0.30540000      -1.97820000       0.02070000
H       -0.20630000       2.15920000       0.82670000
H       -0.21270000       2.04450000      -0.99770000
H        1.70470000       0.66710000      -0.84760000
H        0.08460000      -1.09140000       1.92440000
H       -2.37380000      -1.71630000       1.87750000
H       -2.25650000       0.03870000       1.90770000
H       -3.84640000      -0.70310000      -0.02900000
H       -2.50490000      -0.75460000      -2.14780000
H        0.00110000      -1.14370000      -1.92360000
