16
Properties=species:S:1:pos:R:3 gdb_28240=T pbc="F F F"
N        0.01960000       1.35550000       0.07690000
C       -0.01290000      -0.03830000       0.07450000
N       -1.09820000      -0.77720000       0.26380000
C       -0.60540000      -2.04500000       0.22000000
C        0.72390000      -2.11560000      -0.01560000
C        1.21690000      -3.51320000       0.14070000
C       -0.19070000      -4.22180000       0.16550000
O       -1.22280000      -3.23570000       0.44650000
N        1.12790000      -0.78150000      -0.07460000
H        0.43220000       1.75230000      -0.76010000
H       -0.92360000       1.70830000       0.18520000
H        1.82410000      -3.91020000      -0.68100000
H        1.77940000      -3.68120000       1.07120000
H       -0.40460000      -4.65660000      -0.81720000
H       -0.26420000      -5.00240000       0.92480000
H        2.05470000      -0.41430000      -0.20120000
