18
Properties=species:S:1:pos:R:3 gdb_43877=T pbc="F F F"
O        0.04930000       0.34360000      -1.03120000
C        0.00730000       1.26750000      -0.27280000
C       -1.13900000       2.04770000       0.39200000
C       -0.08920000       3.11060000       0.82950000
C       -0.13560000       4.58690000       0.35380000
C       -0.13020000       4.96210000       1.83160000
C       -1.22900000       4.29530000       2.55180000
N       -0.00710000       3.51150000       2.27640000
C        1.06430000       2.19160000       0.34630000
H       -1.95230000       2.36280000      -0.26720000
H       -1.56280000       1.50400000       1.24410000
H        0.77300000       4.88180000      -0.17530000
H       -1.00450000       4.91150000      -0.22740000
H        0.47330000       5.74300000       2.28210000
H       -1.35270000       4.51800000       3.60700000
H       -2.15010000       4.04270000       2.03000000
H        1.58390000       1.72350000       1.18940000
H        1.80480000       2.61010000      -0.34070000
