18
Properties=species:S:1:pos:R:3 gdb_15812=T pbc="F F F"
C       -0.20060000       1.48120000      -0.21640000
C        0.01370000      -0.00720000      -0.01980000
O        0.69850000      -0.50670000      -1.18520000
C        0.97320000      -1.82690000      -1.18140000
O        0.67810000      -2.57150000      -0.27510000
C        1.67690000      -2.23210000      -2.42440000
C        2.70000000      -3.34890000      -2.30540000
C        1.38730000      -3.62450000      -2.95880000
H        0.75440000       2.00180000      -0.33040000
H       -0.80560000       1.67470000      -1.10680000
H       -0.71990000       1.89960000       0.65090000
H        0.61930000      -0.22140000       0.86650000
H       -0.93190000      -0.54670000       0.09450000
H        1.86370000      -1.43740000      -3.13490000
H        3.58790000      -3.26920000      -2.92170000
H        2.85540000      -3.74500000      -1.30890000
H        0.66290000      -4.20520000      -2.40020000
H        1.34950000      -3.73910000      -4.03580000
