25
Properties=species:S:1:pos:R:3 gdb_100676=T pbc="F F F"
C       -0.10670000       1.58240000       0.08670000
C       -0.09580000       0.05700000      -0.06260000
C        0.70810000      -0.47070000      -1.26880000
C        0.22280000       0.12100000      -2.59400000
O        2.08550000      -0.08680000      -1.16700000
C        0.63650000      -2.02430000      -1.35740000
C        1.30490000      -2.76220000      -0.19260000
O       -0.73940000      -2.36960000      -1.47550000
C       -0.99340000      -3.63200000      -2.04480000
H        0.90900000       1.98730000       0.04710000
H       -0.68950000       2.06650000      -0.70220000
H       -0.55070000       1.87080000       1.04440000
H        0.33110000      -0.38190000       0.84990000
H       -1.11630000      -0.33110000      -0.13220000
H        0.29460000       1.21020000      -2.58200000
H        0.84960000      -0.24490000      -3.41280000
H       -0.81090000      -0.17210000      -2.78620000
H        2.37420000      -0.25100000      -0.26350000
H        1.16190000      -2.30420000      -2.28520000
H        0.79550000      -2.56480000       0.75470000
H        1.28890000      -3.84260000      -0.36060000
H        2.35520000      -2.47030000      -0.10450000
H       -0.51490000      -3.73590000      -3.03110000
H       -0.65240000      -4.46160000      -1.40840000
H       -2.07620000      -3.71720000      -2.16870000
