21
Properties=species:S:1:pos:R:3 gdb_88113=T pbc="F F F"
O       -0.07370000       1.43350000      -0.07390000
C       -0.04760000       0.03540000      -0.00590000
C       -0.49540000      -0.66750000       1.25520000
C       -1.36160000      -0.68370000       0.00410000
C       -2.65810000       0.10640000       0.02710000
C       -3.77420000      -0.71930000       0.68640000
C       -3.79010000      -2.14140000       0.18770000
C       -2.77590000      -2.70050000      -0.47170000
C       -1.48370000      -1.98400000      -0.77650000
H        0.62970000       1.76990000       0.49070000
H        0.76200000      -0.42680000      -0.57380000
H        0.01470000      -1.57640000       1.55810000
H       -0.82160000      -0.03450000       2.07510000
H       -2.51750000       1.06120000       0.53840000
H       -2.94790000       0.34180000      -1.00560000
H       -3.64950000      -0.71640000       1.77960000
H       -4.74820000      -0.24880000       0.50170000
H       -4.68630000      -2.72460000       0.38770000
H       -2.85830000      -3.72680000      -0.82210000
H       -1.42350000      -1.77950000      -1.85740000
H       -0.63330000      -2.64300000      -0.55790000
