18
Properties=species:S:1:pos:R:3 gdb_75930=T pbc="F F F"
O        0.41760000       0.93000000      -0.76720000
C        0.08350000      -0.25850000      -0.11270000
C        0.40910000      -0.20930000       1.38160000
O        1.22430000       0.53650000       1.86280000
C       -0.57710000      -1.13680000       2.09380000
N       -1.52400000      -1.58320000       1.05610000
C       -1.39360000      -0.63350000      -0.04480000
C       -2.45870000       0.41060000      -0.24220000
C       -2.29890000      -0.73210000      -1.22570000
H        1.00880000       1.40790000      -0.16510000
H        0.63800000      -1.11450000      -0.54540000
H       -0.06750000      -1.97160000       2.58380000
H       -1.08520000      -0.56170000       2.87840000
H       -1.26060000      -2.50810000       0.72950000
H       -3.31000000       0.38040000       0.42730000
H       -2.13200000       1.39410000      -0.55800000
H       -1.88300000      -0.51050000      -2.20250000
H       -3.04970000      -1.51480000      -1.21140000
