21
Properties=species:S:1:pos:R:3 gdb_90981=T pbc="F F F"
C       -0.12700000       1.56150000      -0.03320000
C        0.01860000       0.03830000      -0.00030000
C        0.93080000      -0.53300000      -1.13310000
C        1.96550000      -1.28180000      -0.30740000
C        1.27880000      -1.94140000       0.91940000
O        2.47220000      -1.72250000       1.74920000
C        2.29230000      -0.47980000       0.98290000
C        0.74360000      -0.50370000       1.23950000
C        0.20960000      -0.20780000       2.62000000
H        0.84900000       2.05490000       0.04580000
H       -0.58730000       1.88830000      -0.97150000
H       -0.75270000       1.92650000       0.78760000
H       -0.98290000      -0.40700000      -0.05730000
H        0.38960000      -1.19260000      -1.81880000
H        1.38160000       0.26330000      -1.73530000
H        2.77780000      -1.82340000      -0.79050000
H        0.77100000      -2.90430000       1.00250000
H        3.01600000       0.32120000       1.14330000
H        0.20380000       0.86740000       2.82800000
H       -0.81930000      -0.56980000       2.73080000
H        0.83390000      -0.69960000       3.37040000
