15
Properties=species:S:1:pos:R:3 gdb_5590=T pbc="F F F"
C       -0.04510000       1.39850000       0.06990000
O       -0.00300000      -0.02280000       0.04610000
C       -1.20330000      -0.64340000       0.01930000
C       -1.37130000      -2.01120000      -0.00600000
N       -0.51150000      -3.12630000      -0.01310000
N       -2.75160000      -2.17020000      -0.02750000
C       -3.31430000      -0.94090000      -0.01450000
N       -2.39830000       0.01280000       0.01410000
H        0.99550000       1.72800000       0.08960000
H       -0.54770000       1.79730000      -0.81770000
H       -0.57170000       1.76690000       0.95660000
H        0.10470000      -3.11770000      -0.82000000
H        0.08280000      -3.14490000       0.80990000
H       -3.21470000      -3.06360000      -0.04880000
H       -4.38200000      -0.78430000      -0.02640000
