18
Properties=species:S:1:pos:R:3 gdb_89172=T pbc="F F F"
C       -0.26770000       1.43200000      -0.22660000
N        0.24390000       0.07160000      -0.20130000
C        1.40540000      -0.36190000      -1.02360000
C        1.95140000      -1.09040000       0.22420000
O        2.40080000      -2.39130000       0.24200000
C        2.28510000      -0.11080000       1.34810000
C        2.94120000       1.19810000       1.20380000
O        2.92540000       1.91650000       0.22480000
C        0.79890000      -0.52310000       0.97640000
H        0.48720000       2.19900000      -0.01850000
H       -0.70250000       1.62910000      -1.21210000
H       -1.07280000       1.51590000       0.51120000
H        1.11070000      -1.05850000      -1.81500000
H        2.02670000       0.44440000      -1.41760000
H        3.33450000      -2.39500000       0.00180000
H        2.56820000      -0.64410000       2.25310000
H        3.50820000       1.51010000       2.11080000
H        0.18540000      -0.92410000       1.77620000
