14
Properties=species:S:1:pos:R:3 gdb_125106=T pbc="F F F"
C        0.00140000       1.53900000      -0.06220000
C       -0.03370000       0.04370000      -0.07840000
C       -1.12910000      -0.73680000       0.08650000
O       -2.34610000      -0.26390000       0.28900000
C       -1.05080000      -2.22250000       0.05200000
N       -2.18210000      -2.80260000       0.22590000
O        0.11800000      -2.78870000      -0.14400000
N        1.42840000      -1.78180000      -0.34020000
N        1.17060000      -0.61940000      -0.28180000
H        0.65150000       1.90930000       0.73740000
H        0.38590000       1.93390000      -1.00840000
H       -1.00370000       1.93180000       0.09660000
H       -2.89590000      -1.08550000       0.36470000
H       -2.11540000      -3.81700000       0.20060000
