14
Properties=species:S:1:pos:R:3 gdb_15938=T pbc="F F F"
O       -0.75680000       1.09630000       0.66790000
C        0.19920000       0.83660000      -0.01900000
C        1.39480000       1.73210000      -0.14070000
C        1.73840000       2.72220000       0.98560000
O        1.90130000       3.81450000       0.04090000
C        1.52340000       2.98860000      -1.05990000
C        2.69120000       2.21830000      -1.69760000
O        2.52860000       1.11560000      -0.76430000
H        0.26290000      -0.08680000      -0.63400000
H        0.90050000       2.90600000       1.66550000
H        2.65540000       2.49610000       1.53750000
H        0.74880000       3.42760000      -1.69080000
H        2.52370000       1.88740000      -2.72960000
H        3.66550000       2.70860000      -1.60870000
