16
Properties=species:S:1:pos:R:3 gdb_45781=T pbc="F F F"
O       -0.03190000      -0.06870000      -0.17460000
C       -0.06960000       1.10010000       0.06220000
C       -1.29520000       1.98520000       0.06770000
C       -1.20300000       3.04380000       1.15340000
C       -2.40790000       3.89120000       1.46990000
C       -1.93610000       2.86930000       2.46980000
N        0.07100000       3.69540000       1.23500000
C        1.07220000       3.06020000       0.80940000
O        1.11280000       1.77190000       0.31480000
H       -1.33810000       2.47360000      -0.91650000
H       -2.17800000       1.35090000       0.16000000
H       -2.21320000       4.93510000       1.68460000
H       -3.32330000       3.69460000       0.92220000
H       -2.51720000       1.96270000       2.60040000
H       -1.43260000       3.22300000       3.36110000
H        2.07420000       3.47730000       0.82590000
