17
Properties=species:S:1:pos:R:3 gdb_118623=T pbc="F F F"
O        0.03680000       1.48120000      -0.15130000
C        0.06750000       0.06880000      -0.06620000
C       -1.34590000      -0.52220000       0.01250000
C       -1.34010000      -2.05330000       0.01270000
O       -0.66190000      -2.48200000       1.19240000
C       -0.30790000      -3.79310000       1.25650000
N        0.32430000      -4.20740000       2.26140000
C       -2.71170000      -2.59640000      -0.03300000
N       -3.78380000      -3.02460000      -0.07700000
H       -0.19760000       1.82880000       0.71500000
H        0.56140000      -0.27640000      -0.98220000
H        0.66900000      -0.27970000       0.78280000
H       -1.85080000      -0.18060000       0.92300000
H       -1.93310000      -0.17120000      -0.84140000
H       -0.80770000      -2.42080000      -0.87670000
H       -0.62640000      -4.37860000       0.38480000
H        0.52030000      -5.20200000       2.17050000
