18
Properties=species:S:1:pos:R:3 gdb_105994=T pbc="F F F"
C       -0.26680000       1.29610000       0.09780000
O        0.22810000      -0.02980000      -0.05690000
C        0.81020000      -0.53620000       1.05950000
C        2.15680000      -0.25580000       1.80450000
C        1.54700000      -0.70650000       3.08340000
C        0.18700000      -0.98160000       2.40590000
C        0.91420000      -1.96560000       1.49360000
C        0.52730000      -3.26090000       0.87450000
N        2.25060000      -1.70670000       2.20570000
H        0.54460000       2.00070000       0.32290000
H       -0.72910000       1.57350000      -0.85130000
H       -1.01270000       1.34680000       0.90120000
H        3.03990000       0.33480000       1.58790000
H        1.83980000      -0.53210000       4.11270000
H       -0.84150000      -0.95960000       2.73740000
H       -0.45600000      -3.17480000       0.40140000
H        1.25040000      -3.55490000       0.10590000
H        0.48170000      -4.05750000       1.62470000
