19
Properties=species:S:1:pos:R:3 gdb_50703=T pbc="F F F"
O       -0.88610000       1.18300000       0.32490000
C        0.19990000       0.77680000       0.00560000
C        1.44170000       1.65710000      -0.04900000
O        2.54570000       0.80480000      -0.28200000
C        3.76750000       1.53160000      -0.32480000
C        3.86770000       2.39990000      -1.58360000
C        2.55270000       3.11870000      -1.88680000
C        1.44000000       2.35880000      -2.57020000
C        1.30650000       2.73190000      -1.11720000
H        0.38390000      -0.28080000      -0.28610000
H        1.54340000       2.14660000       0.93610000
H        3.84760000       2.15830000       0.57820000
H        4.56870000       0.78850000      -0.29070000
H        4.67160000       3.13010000      -1.44140000
H        4.15740000       1.77650000      -2.43700000
H        2.64450000       4.16770000      -2.14890000
H        0.81750000       2.87830000      -3.28960000
H        1.63540000       1.31790000      -2.80810000
H        0.59650000       3.51060000      -0.86110000
