21
Properties=species:S:1:pos:R:3 gdb_82548=T pbc="F F F"
C        0.29400000       1.78060000      -0.19840000
C        0.07510000       0.28650000      -0.10690000
C        0.46190000      -0.72130000      -1.13330000
C        1.44990000      -0.36980000      -2.23550000
C        2.69000000       0.14230000      -1.49550000
C        4.01620000       0.25130000      -2.14440000
N        3.26660000       1.47040000      -1.77960000
C        2.51680000      -0.25560000      -0.02250000
N        1.12960000      -0.70470000       0.19200000
H        1.20420000       2.06640000      -0.72600000
H       -0.55870000       2.24730000      -0.70440000
H        0.34890000       2.21220000       0.80750000
H       -0.83320000       0.04310000       0.44450000
H       -0.20430000      -1.56010000      -1.32110000
H        1.68140000      -1.27140000      -2.81350000
H        1.06050000       0.37300000      -2.94150000
H        4.92150000       0.08140000      -1.56630000
H        4.09910000      -0.01330000      -3.19620000
H        2.83800000       1.86320000      -2.61540000
H        3.16840000      -1.10150000       0.22450000
H        2.78030000       0.57350000       0.64090000
