14
Properties=species:S:1:pos:R:3 gdb_43604=T pbc="F F F"
N        0.02200000       1.06750000       0.84690000
C       -0.02280000       0.00900000       0.18230000
C       -1.12960000      -0.90990000      -0.27540000
C        0.03420000      -1.73380000      -0.92650000
O        0.99270000      -0.72890000      -0.39800000
C        0.27510000      -3.04660000      -0.34860000
C        0.45210000      -4.12730000       0.14370000
C        0.04810000      -1.76110000      -2.38070000
C        0.03620000      -1.77100000      -3.58130000
H        0.97950000       1.40600000       0.95410000
H       -1.66260000      -1.43000000       0.51990000
H       -1.83100000      -0.47630000      -0.98760000
H        0.61820000      -5.08520000       0.57230000
H        0.03600000      -1.78590000      -4.64360000
