22
Properties=species:S:1:pos:R:3 gdb_6617=T pbc="F F F"
C       -1.51440000      -0.25990000      -0.18700000
C       -0.02200000       0.00600000       0.02690000
C        0.24680000       1.50740000       0.20000000
O        0.30560000      -0.68540000       1.24050000
C        0.79160000      -0.55420000      -1.15190000
C        2.34640000      -0.59840000      -1.06660000
C        2.30580000      -1.97930000      -1.77380000
C        0.80560000      -2.08970000      -1.39370000
H       -1.86950000       0.22550000      -1.10090000
H       -1.70310000      -1.33370000      -0.26820000
H       -2.09140000       0.12340000       0.65930000
H       -0.30480000       1.89390000       1.06210000
H        1.31420000       1.69840000       0.36280000
H       -0.05740000       2.07160000      -0.68750000
H        1.19150000      -0.41610000       1.50380000
H        0.48990000      -0.02770000      -2.06500000
H        2.90990000       0.20770000      -1.54270000
H        2.69450000      -0.69780000      -0.03230000
H        2.44640000      -1.88220000      -2.85430000
H        2.98160000      -2.75520000      -1.40620000
H        0.66660000      -2.62040000      -0.44810000
H        0.11880000      -2.49830000      -2.13870000
