17
Properties=species:S:1:pos:R:3 gdb_53464=T pbc="F F F"
C        0.16800000       1.48530000       0.00840000
C        0.06140000       0.03400000       0.00240000
C       -0.03500000      -1.16490000      -0.00240000
C       -0.15470000      -2.61190000      -0.00820000
C       -1.60070000      -3.13360000      -0.00380000
O       -2.57150000      -2.41380000       0.00390000
C       -1.70220000      -4.57930000      -0.00970000
C       -1.77750000      -5.78400000      -0.01470000
C       -1.89370000      -7.23190000      -0.02020000
H        0.70260000       1.85020000      -0.87560000
H       -0.82350000       1.95110000       0.01250000
H        0.70640000       1.84280000       0.89310000
H        0.34380000      -3.05210000      -0.88350000
H        0.35190000      -3.05980000       0.85850000
H       -2.47260000      -7.57070000      -0.88620000
H       -0.91190000      -7.71480000      -0.05720000
H       -2.41080000      -7.58160000       0.87990000
