15
Properties=species:S:1:pos:R:3 gdb_26724=T pbc="F F F"
N        0.03000000       1.42410000      -0.14170000
C        0.04460000       0.02360000      -0.04360000
C       -1.06170000      -0.78780000      -0.03140000
O       -2.38950000      -0.47570000       0.01320000
N       -0.63580000      -2.10910000      -0.00190000
C        0.71620000      -2.15490000       0.00960000
C        1.19160000      -0.84790000      -0.02710000
C        2.59510000      -0.48040000      -0.05410000
O        3.52470000      -1.26360000      -0.02970000
H        0.77490000       1.86260000       0.38450000
H       -0.85700000       1.80300000       0.16930000
H       -2.70820000      -0.29100000      -0.87890000
H       -1.26050000      -2.89580000       0.05330000
H        1.26730000      -3.07930000       0.04560000
H        2.78950000       0.61610000      -0.10590000
