12
Properties=species:S:1:pos:R:3 gdb_21830=T pbc="F F F"
O       -0.28660000       0.05250000       0.00190000
C       -0.06470000       1.24180000       0.00830000
N        1.18000000       1.81060000       0.00130000
C        2.38030000       1.10930000      -0.01390000
N        3.53580000       1.77380000      -0.01820000
N        4.43270000       0.79000000      -0.03320000
N        3.96110000      -0.44400000      -0.03910000
C        2.63780000      -0.27630000      -0.02690000
H       -0.85800000       2.01220000       0.02100000
H        1.25480000       2.81700000       0.00810000
H        5.42060000       0.98220000      -0.03980000
H        1.94650000      -1.09880000      -0.02750000
