18
Properties=species:S:1:pos:R:3 gdb_124845=T pbc="F F F"
C       -0.16630000       1.58220000       0.00680000
C       -0.01810000       0.06120000      -0.00210000
C       -1.33630000      -0.65090000       0.30030000
C        0.75670000      -0.51370000      -1.28470000
N        1.79400000      -0.93180000      -0.32860000
N        2.98240000      -1.51840000      -0.05950000
C        3.00320000      -1.35380000       1.26930000
N        1.92710000      -0.71460000       1.84410000
C        1.20110000      -0.47700000       0.76530000
H        0.78050000       2.07890000      -0.22410000
H       -0.91310000       1.90150000      -0.72790000
H       -0.49470000       1.92600000       0.99230000
H       -2.10320000      -0.36900000      -0.42900000
H       -1.21960000      -1.73820000       0.27670000
H       -1.69880000      -0.37330000       1.29460000
H        0.26690000      -1.34500000      -1.79730000
H        1.09530000       0.23530000      -2.00450000
H        3.83660000      -1.71330000       1.85500000
