14
Properties=species:S:1:pos:R:3 gdb_29954=T pbc="F F F"
C       -0.01090000       1.43960000      -0.00290000
N        0.00000000      -0.01820000      -0.02630000
C       -0.10300000      -0.72540000      -1.16230000
N       -0.09800000      -2.02490000      -1.23290000
C        0.02460000      -2.62710000      -0.01660000
O        0.03040000      -3.95660000      -0.08190000
N        0.13290000      -2.06650000       1.15970000
C        0.12790000      -0.69990000       1.23810000
O        0.21880000      -0.03770000       2.24530000
H        0.91540000       1.81000000       0.44060000
H       -0.11240000       1.81280000      -1.02360000
H       -0.84230000       1.79430000       0.60950000
H       -0.19650000      -0.14990000      -2.08130000
H        0.12110000      -4.27140000       0.82970000
