18
Properties=species:S:1:pos:R:3 gdb_7105=T pbc="F F F"
C        0.15500000       1.52620000      -0.02880000
C        0.20360000      -0.00350000      -0.01630000
C       -1.18960000      -0.62990000       0.03300000
C       -1.18880000      -2.14430000       0.04590000
N       -0.11960000      -2.82230000       0.01480000
N       -2.50410000      -2.67810000       0.09560000
C       -2.86150000      -4.00200000       0.11840000
O       -2.10130000      -4.94390000       0.09980000
H        1.16310000       1.94980000      -0.06410000
H       -0.39320000       1.90390000      -0.89960000
H       -0.33820000       1.92020000       0.86730000
H        0.72870000      -0.37600000      -0.90110000
H        0.78310000      -0.35990000       0.84100000
H       -1.73200000      -0.27580000       0.92280000
H       -1.78680000      -0.29120000      -0.82740000
H       -0.32070000      -3.82240000       0.03000000
H       -3.26370000      -2.01360000       0.11650000
H       -3.96190000      -4.12230000       0.15730000
