22
Properties=species:S:1:pos:R:3 gdb_106107=T pbc="F F F"
C       -0.46660000       1.59610000       0.22260000
C       -0.03150000       0.14640000      -0.03030000
C        0.83010000      -0.40970000       1.05510000
C        1.12360000      -1.77380000       1.55600000
C        2.62330000      -1.49380000       1.66930000
C        3.40790000      -1.89000000       0.42410000
C        2.21040000       0.00600000       1.72820000
C        1.40460000       0.07060000       3.03150000
N        0.34910000      -0.80060000       2.41550000
H        0.39970000       2.26130000       0.30290000
H       -1.09570000       1.96450000      -0.59320000
H       -1.03770000       1.67070000       1.15280000
H       -0.91560000      -0.49690000      -0.11890000
H        0.50120000       0.07860000      -0.98800000
H        0.62370000      -2.70900000       1.33340000
H        3.12650000      -1.86960000       2.56970000
H        2.93640000      -1.49760000      -0.48360000
H        4.43220000      -1.50450000       0.46710000
H        3.46720000      -2.97930000       0.32330000
H        2.90550000       0.78490000       1.41570000
H        1.86750000      -0.32460000       3.94430000
H        0.96500000       1.05010000       3.23620000
