17
Properties=species:S:1:pos:R:3 gdb_37884=T pbc="F F F"
C       -0.03910000       1.55250000       0.07210000
C        1.50040000       1.52470000      -0.02730000
C        2.10020000       0.78740000       1.22920000
O        1.05760000       0.39460000       2.11500000
C        0.43180000      -0.62650000       1.34290000
O        1.49710000      -1.50580000       1.02540000
C        2.31160000      -0.53910000       0.38010000
C        1.43480000       0.11710000      -0.70430000
C        0.01740000       0.00190000      -0.02620000
H       -0.49610000       1.98700000       0.96380000
H       -0.48080000       1.99410000      -0.82500000
H        2.06200000       2.37550000      -0.41350000
H        2.91040000       1.24980000       1.79020000
H       -0.33330000      -1.12680000       1.93320000
H        3.30640000      -0.92490000       0.17220000
H        1.54030000      -0.09130000      -1.76730000
H       -0.78070000      -0.54740000      -0.52500000
