21
Properties=species:S:1:pos:R:3 gdb_58678=T pbc="F F F"
C        2.60550000      -0.81600000       2.21660000
C        1.46430000      -1.15400000       1.24260000
C        0.21980000      -0.28520000       1.48950000
C        1.93470000      -1.06460000      -0.20150000
O        2.70760000      -2.17670000      -0.70980000
C        1.42890000      -1.95230000      -1.28620000
C        0.35940000      -2.99980000      -1.10620000
C        2.49040000       0.23460000      -0.71680000
O        2.37050000       1.31260000      -0.19200000
H        3.47900000      -1.44790000       2.02830000
H        2.90700000       0.23030000       2.12320000
H        2.28250000      -0.98540000       3.24840000
H        1.19420000      -2.20140000       1.41140000
H        0.44800000       0.77220000       1.34210000
H       -0.59880000      -0.55690000       0.81470000
H       -0.13470000      -0.42170000       2.51600000
H        1.48180000      -1.55150000      -2.30250000
H        0.31560000      -3.37800000      -0.08420000
H       -0.61900000      -2.58810000      -1.37410000
H        0.56040000      -3.84460000      -1.77320000
H        3.05230000       0.10360000      -1.66940000
