13
Properties=species:S:1:pos:R:3 gdb_128626=T pbc="F F F"
C       -0.04120000       1.40800000       0.05660000
O        0.02210000      -0.02850000      -0.03590000
C        0.62660000      -0.52310000      -1.09440000
N        1.14760000       0.19980000      -2.02130000
C        1.75310000      -0.46760000      -3.07890000
O        2.28060000       0.08490000      -4.01630000
C        1.70810000      -1.95240000      -2.98060000
N        1.17560000      -2.62530000      -2.03400000
O        0.58640000      -1.86590000      -1.00590000
H        0.96490000       1.83020000       0.08190000
H       -0.58260000       1.81870000      -0.79740000
H       -0.57150000       1.60510000       0.98720000
H        2.16080000      -2.54430000      -3.77050000
