21
Properties=species:S:1:pos:R:3 gdb_104239=T pbc="F F F"
C       -0.11350000       1.58150000      -0.01500000
C       -0.05090000       0.05530000      -0.01710000
C       -1.42390000      -0.55280000      -0.26680000
O       -1.86810000      -0.14070000      -1.55190000
C        1.10910000      -0.49600000      -0.90270000
C        1.98600000      -0.65760000       0.36430000
C        0.69450000      -0.55260000       1.23650000
C        0.73830000       0.18760000       2.47960000
C        0.78280000       0.81410000       3.50620000
H        0.87770000       2.02420000       0.12060000
H       -0.52430000       1.93250000      -0.96490000
H       -0.75120000       1.94730000       0.79630000
H       -1.35370000      -1.65160000      -0.21090000
H       -2.12030000      -0.22500000       0.52310000
H       -2.75070000      -0.49400000      -1.69490000
H        0.85340000      -1.45610000      -1.35960000
H        1.48020000       0.16990000      -1.68420000
H        2.56770000      -1.57540000       0.47070000
H        2.64690000       0.19560000       0.53020000
H        0.30340000      -1.55920000       1.42800000
H        0.82310000       1.36240000       4.41440000
