17
Properties=species:S:1:pos:R:3 gdb_41728=T pbc="F F F"
C       -0.01250000       1.58900000      -0.00880000
O        1.39490000       1.92790000      -0.00080000
C        2.10170000       0.71540000      -0.17030000
C        2.02990000      -0.21560000       1.06660000
C        2.41570000      -1.55950000       0.46150000
O        1.70910000      -1.54550000      -0.80180000
C        1.18150000      -0.24270000      -0.95340000
C        0.01800000       0.06610000       0.02270000
O        0.60400000      -0.28630000       1.29710000
H       -0.49100000       2.00090000       0.88410000
H       -0.49380000       2.00260000      -0.90630000
H        3.09730000       0.91140000      -0.56630000
H        2.54230000       0.08990000       1.97800000
H        3.49530000      -1.67180000       0.28740000
H        2.05600000      -2.39370000       1.07040000
H        0.99420000      -0.03160000      -2.00540000
H       -0.92750000      -0.45760000      -0.11280000
