16
Properties=species:S:1:pos:R:3 gdb_26519=T pbc="F F F"
O       -0.00390000       1.46310000      -0.08370000
C       -0.00540000       0.09900000       0.05540000
C       -0.14970000      -0.78780000      -1.15560000
C       -1.14250000      -0.93300000      -0.01330000
N       -0.51640000      -1.61440000       1.13060000
C       -0.13250000      -2.84890000       1.58860000
C        1.15330000      -2.70270000       2.08000000
C        1.61980000      -1.38160000       1.78350000
C        0.55190000      -0.73610000       1.20040000
H       -0.28360000       1.84760000       0.75550000
H       -0.54820000      -0.28610000      -2.03460000
H        0.56800000      -1.57700000      -1.35830000
H       -2.21480000      -0.81880000      -0.09740000
H       -0.80840000      -3.68850000       1.63130000
H        1.69350000      -3.45330000       2.64010000
H        2.59850000      -0.98300000       2.00110000
