18
Properties=species:S:1:pos:R:3 gdb_54542=T pbc="F F F"
C       -0.02850000       1.49350000      -0.15090000
C        0.04550000      -0.01640000      -0.11070000
O        1.08850000      -0.63230000      -0.08570000
C       -1.26410000      -0.75570000      -0.09390000
C       -1.46830000      -2.05700000      -0.89490000
C       -2.91450000      -1.60010000      -0.95360000
C       -3.26160000      -0.94300000       0.34290000
C       -2.03780000      -0.96110000       1.23730000
N       -2.56540000      -0.15290000      -0.73310000
H        0.97630000       1.91610000      -0.12340000
H       -0.55460000       1.80850000      -1.05840000
H       -0.61970000       1.87320000       0.68990000
H       -0.98860000      -1.99640000      -1.87440000
H       -1.21560000      -3.00620000      -0.41470000
H       -3.67440000      -1.87980000      -1.67440000
H       -4.28570000      -0.72310000       0.62230000
H       -1.80040000      -1.84900000       1.83080000
H       -1.99840000      -0.06850000       1.86720000
