21
Properties=species:S:1:pos:R:3 gdb_107807=T pbc="F F F"
C        0.07270000       1.53010000       0.16360000
C        0.00390000       0.01470000      -0.05880000
C       -1.40990000      -0.54120000      -0.09320000
C       -2.26260000      -0.46680000       1.24590000
C       -2.70560000      -1.90080000       0.99940000
C       -3.05450000      -2.16140000      -0.49250000
C       -3.30910000      -0.98910000      -1.37550000
C       -2.34240000      -0.08250000      -1.20050000
C       -1.62480000      -2.09830000      -0.03400000
H        1.11100000       1.87120000       0.21770000
H       -0.41300000       2.08040000      -0.64860000
H       -0.42100000       1.81620000       1.09850000
H        0.51160000      -0.24330000      -0.99760000
H        0.56140000      -0.49290000       0.73940000
H       -1.59700000      -0.42440000       2.11350000
H       -3.01750000       0.32310000       1.32110000
H       -3.06290000      -2.59340000       1.75260000
H       -3.51080000      -3.12530000      -0.68730000
H       -4.17900000      -0.89110000      -2.01340000
H       -2.30320000       0.90530000      -1.64360000
H       -0.87760000      -2.87490000      -0.15260000
