16
Properties=species:S:1:pos:R:3 gdb_44879=T pbc="F F F"
O        0.04200000       0.07410000       0.02690000
C        0.03100000       1.27280000       0.04560000
C       -1.17980000       2.24210000       0.09950000
C       -0.37150000       3.55520000       0.00880000
N        0.68530000       3.27240000      -1.02690000
C        1.20400000       2.26410000      -0.03040000
C        0.75300000       3.29650000       1.01910000
C        1.50450000       4.16740000       1.90360000
O        0.63430000       3.11910000       2.40080000
H       -1.86230000       2.09940000      -0.74350000
H       -1.74100000       2.11180000       1.02980000
H       -0.90570000       4.50220000      -0.05910000
H        0.30500000       2.82890000      -1.86470000
H        2.21510000       1.87750000      -0.13390000
H        2.56710000       3.99690000       2.06280000
H        1.15630000       5.18130000       2.09100000
