17
Properties=species:S:1:pos:R:3 gdb_46613=T pbc="F F F"
O       -0.10280000      -0.07640000      -0.07940000
C        0.00320000       1.13260000      -0.08400000
N       -1.08080000       2.02880000      -0.16820000
C       -0.69140000       3.41590000       0.05530000
C        0.80170000       3.27950000       0.06470000
C        1.18590000       1.99720000      -0.02620000
C        2.68460000       1.90770000       0.06520000
C        3.07900000       3.41550000      -0.09020000
N        1.83600000       4.17580000       0.23070000
H       -1.99640000       1.69500000       0.08580000
H       -1.05420000       4.08100000      -0.74120000
H       -1.06290000       3.81430000       1.01030000
H        3.00910000       1.51310000       1.03610000
H        3.15120000       1.28660000      -0.70400000
H        3.89050000       3.71410000       0.57760000
H        3.39170000       3.62190000      -1.12230000
H        1.75030000       5.08920000      -0.19370000
