16
Properties=species:S:1:pos:R:3 gdb_33667=T pbc="F F F"
C       -0.03660000      -1.16470000      -0.15620000
C       -0.03190000       0.03210000      -0.02990000
C        0.02200000       1.43910000       0.12080000
C       -0.90570000       2.34630000       0.83570000
C       -0.09010000       3.28600000       1.71160000
O        1.27730000       3.05600000       1.34860000
C        1.24500000       2.40660000       0.09400000
C        0.44560000       3.22080000      -0.94760000
N       -0.81940000       2.46250000      -0.64540000
H       -0.05090000      -2.22030000      -0.26970000
H       -1.86900000       1.98720000       1.17810000
H       -0.36060000       4.33890000       1.55390000
H       -0.21880000       3.05440000       2.77420000
H        2.23880000       2.03470000      -0.14710000
H        0.39390000       4.30320000      -0.79460000
H        0.73240000       3.00680000      -1.97940000
