21
Properties=species:S:1:pos:R:3 gdb_66769=T pbc="F F F"
C       -0.02040000       1.52910000       0.01120000
C        0.02640000       0.02610000      -0.03870000
C        0.62880000      -0.87520000      -1.18410000
C       -0.42120000      -1.88670000      -0.79680000
C        0.94550000      -1.86760000      -0.09310000
C        0.78680000      -0.83430000       1.02840000
C       -0.19950000      -1.21600000       2.14120000
C       -1.58930000      -1.23520000       1.42550000
C       -1.26460000      -0.86300000      -0.02800000
H        0.98630000       1.96120000      -0.02160000
H       -0.58680000       1.93920000      -0.83270000
H       -0.50080000       1.87780000       0.93350000
H        1.11140000      -0.66210000      -2.12700000
H       -0.75670000      -2.75430000      -1.35160000
H        1.61100000      -2.72120000      -0.13230000
H        1.73640000      -0.40980000       1.36410000
H        0.05360000      -2.18220000       2.58910000
H       -0.18440000      -0.47850000       2.95100000
H       -2.07980000      -2.21160000       1.49090000
H       -2.27320000      -0.50720000       1.87520000
H       -2.09850000      -0.46340000      -0.61070000
