19
Properties=species:S:1:pos:R:3 gdb_120538=T pbc="F F F"
C        0.20220000       1.61810000      -0.90750000
O       -0.11180000       0.24530000      -0.94980000
C        0.81410000      -0.55480000      -0.25430000
C        0.35690000      -1.99680000      -0.38190000
C        0.59120000      -2.68890000      -1.73980000
C        1.59170000      -3.57630000      -0.94870000
O        1.27730000      -2.89650000       0.28300000
C        1.22800000      -5.04570000      -0.89940000
O        1.72460000      -5.88560000      -1.60310000
H        0.21530000       2.00090000       0.12490000
H        1.18320000       1.82580000      -1.36290000
H       -0.56910000       2.14730000      -1.47180000
H        1.83040000      -0.44510000      -0.67040000
H        0.86480000      -0.28010000       0.81280000
H       -0.65980000      -2.09460000       0.01640000
H       -0.27110000      -3.21570000      -2.15100000
H        1.03600000      -2.06550000      -2.51560000
H        2.64420000      -3.47110000      -1.23420000
H        0.42840000      -5.27970000      -0.15930000
