17
Properties=species:S:1:pos:R:3 gdb_32688=T pbc="F F F"
O        0.00860000       1.44500000       0.20460000
C        0.00160000       0.09980000      -0.22890000
C       -1.38670000      -0.52660000      -0.10020000
C       -1.44120000      -2.10220000      -0.18060000
N       -1.88290000      -2.07540000       1.23350000
C       -2.31800000      -2.59580000       2.41270000
N       -2.58660000      -1.61090000       3.25240000
C       -2.33320000      -0.42060000       2.59760000
C       -1.88960000      -0.71390000       1.33120000
H       -0.18230000       1.44190000       1.14950000
H        0.31360000       0.11490000      -1.27890000
H        0.73090000      -0.51000000       0.32790000
H       -2.08910000      -0.02340000      -0.76980000
H       -2.18900000      -2.51440000      -0.86110000
H       -0.48040000      -2.60180000      -0.33030000
H       -2.41780000      -3.64970000       2.61850000
H       -2.49850000       0.52850000       3.08240000
