21
Properties=species:S:1:pos:R:3 gdb_98258=T pbc="F F F"
C        1.01140000      -0.56540000      -0.72310000
C       -0.03810000       0.03520000       0.22120000
C       -0.06260000       1.56640000       0.12870000
C       -1.45370000      -0.52640000      -0.07730000
O       -1.86900000      -0.17520000      -1.37240000
C       -1.53590000      -2.03740000       0.09710000
O       -1.87910000      -2.73930000      -0.83650000
C       -1.22410000      -2.68410000       1.43510000
O       -1.45410000      -4.06150000       1.40600000
H        1.99690000      -0.13110000      -0.53140000
H        1.10000000      -1.65130000      -0.60740000
H        0.74340000      -0.35960000      -1.76300000
H        0.20780000      -0.24030000       1.25580000
H       -0.35180000       1.88280000      -0.87710000
H       -0.77720000       1.99800000       0.83760000
H        0.92540000       1.98150000       0.35010000
H       -2.14730000      -0.08980000       0.66330000
H       -2.07560000      -1.01000000      -1.82040000
H       -0.17520000      -2.46130000       1.69100000
H       -1.83820000      -2.19490000       2.20830000
H       -1.72290000      -4.26110000       0.49600000
