21
Properties=species:S:1:pos:R:3 gdb_73285=T pbc="F F F"
O       -0.05760000       1.41240000       0.09590000
C        0.05720000       0.01360000      -0.01700000
C        0.17030000      -0.61880000      -1.42900000
O       -0.87320000      -1.55820000      -1.08980000
C       -1.32140000      -0.69000000      -0.01510000
C       -1.82740000      -1.39990000       1.22840000
C       -0.70970000      -1.98790000       2.10060000
C        0.40090000      -0.95340000       2.32900000
C        1.05280000      -0.59040000       0.98930000
H        0.82390000       1.78600000       0.19780000
H       -0.14410000       0.07570000      -2.22060000
H        1.10220000      -1.11930000      -1.71340000
H       -2.08510000       0.00410000      -0.39630000
H       -2.39240000      -0.66450000       1.81610000
H       -2.54300000      -2.17220000       0.92310000
H       -1.12790000      -2.32470000       3.05500000
H       -0.28250000      -2.87300000       1.61300000
H       -0.01690000      -0.05300000       2.79860000
H        1.15850000      -1.34750000       3.01480000
H        1.48730000      -1.50100000       0.56200000
H        1.88580000       0.11210000       1.12880000
