18
Properties=species:S:1:pos:R:3 gdb_38552=T pbc="F F F"
C       -0.11900000       1.46490000      -0.12890000
C        1.25370000       0.84240000       0.01840000
C        2.17620000       0.22100000      -1.03770000
N        1.45950000      -0.91120000      -1.66160000
C        0.80770000      -2.02960000      -0.84890000
C        0.68230000      -2.11370000       0.65270000
C        0.08190000      -1.02190000       1.14860000
C       -0.00780000      -0.01970000       0.03590000
C        0.06130000      -0.82260000      -1.26630000
H       -0.44370000       2.09590000       0.69370000
H       -0.47100000       1.79940000      -1.10210000
H        1.70910000       1.02470000       0.98660000
H        2.46460000       0.90320000      -1.84810000
H        3.10180000      -0.11630000      -0.55860000
H        0.80110000      -2.94840000      -1.42520000
H        1.01230000      -2.97440000       1.22010000
H       -0.10200000      -0.80110000       2.19380000
H       -0.71990000      -0.76050000      -2.02120000
