22
Properties=species:S:1:pos:R:3 gdb_116318=T pbc="F F F"
C       -0.09320000       1.54990000       0.07060000
C       -0.01200000       0.02240000      -0.02570000
C        0.75950000      -0.50340000      -1.24750000
C        2.23900000      -0.08150000      -1.25280000
O        2.93740000      -0.67340000      -2.33560000
C        3.11760000      -2.06910000      -2.17440000
C        1.83690000      -2.80400000      -1.80250000
N        1.46790000      -2.77900000      -0.37230000
C        0.66360000      -2.01620000      -1.34300000
H        0.89220000       2.00500000       0.21110000
H       -0.53190000       1.98250000      -0.83580000
H       -0.71590000       1.85420000       0.91770000
H        0.45020000      -0.38800000       0.88040000
H       -1.03020000      -0.38750000      -0.05830000
H        0.30360000      -0.09450000      -2.16060000
H        2.33220000       0.99840000      -1.39150000
H        2.70870000      -0.35030000      -0.29370000
H        3.49190000      -2.43170000      -3.13670000
H        3.88350000      -2.27060000      -1.40810000
H        1.64680000      -3.72380000      -2.35050000
H        0.99050000      -3.63840000      -0.11550000
H       -0.32570000      -2.40190000      -1.58520000
