17
Properties=species:S:1:pos:R:3 gdb_109028=T pbc="F F F"
C       -0.25190000       1.49890000      -0.01390000
C        0.09700000      -0.00060000       0.02730000
C        0.82310000      -0.45980000      -1.19860000
C        2.09550000      -0.86860000      -1.33300000
C        2.38060000      -1.32760000      -2.73360000
O        1.57790000      -2.46410000      -3.11740000
C        1.15130000      -1.14540000      -3.50600000
C        0.13610000      -0.55070000      -2.53340000
O       -0.98980000      -0.19940000      -2.79270000
H        0.65330000       2.11060000      -0.08050000
H       -0.88300000       1.72160000      -0.87720000
H       -0.79260000       1.78960000       0.89150000
H        0.69850000      -0.22400000       0.91490000
H       -0.83350000      -0.57490000       0.11510000
H        2.82620000      -0.92860000      -0.53440000
H        3.37400000      -1.28450000      -3.16750000
H        1.09260000      -0.94190000      -4.57010000
