17
Properties=species:S:1:pos:R:3 gdb_107964=T pbc="F F F"
C        0.09750000       1.47120000      -0.05200000
C        0.01830000      -0.01800000      -0.04030000
O        0.63000000      -0.79850000      -1.11330000
C        0.07390000      -1.83430000      -0.25640000
C        0.36320000      -1.07530000       1.06710000
O       -1.00190000      -1.17000000       1.56590000
C       -1.19650000      -1.00800000       0.12200000
C       -2.59990000      -1.03830000      -0.39270000
O       -3.23020000      -2.26790000      -0.08230000
H        1.14080000       1.80020000      -0.03210000
H       -0.37660000       1.87890000      -0.94980000
H       -0.41320000       1.87170000       0.82890000
H        0.19540000      -2.87970000      -0.53410000
H        1.19010000      -1.13840000       1.77390000
H       -3.15610000      -0.17950000       0.01580000
H       -2.58720000      -0.94380000      -1.48340000
H       -3.09990000      -2.41510000       0.86190000
