22
Properties=species:S:1:pos:R:3 gdb_121377=T pbc="F F F"
C        0.02610000       1.58140000       0.03020000
C        0.00840000       0.05070000       0.02220000
C       -1.40850000      -0.53020000       0.02220000
C       -1.44420000      -2.06290000      -0.04800000
C       -2.86170000      -2.62330000       0.12930000
C       -2.85570000      -4.11160000      -0.19120000
O       -2.31160000      -4.36030000      -1.49740000
C       -1.32120000      -3.52380000      -1.89050000
N       -0.84770000      -2.50370000      -1.31420000
H        1.05020000       1.96810000       0.03570000
H       -0.47670000       1.98720000      -0.85480000
H       -0.48540000       1.98360000       0.91240000
H        0.54020000      -0.32860000      -0.85620000
H        0.55220000      -0.32680000       0.89900000
H       -1.94280000      -0.20750000       0.92650000
H       -1.97060000      -0.13210000      -0.83330000
H       -0.80890000      -2.45020000       0.76370000
H       -3.22960000      -2.46460000       1.14850000
H       -3.54840000      -2.10650000      -0.55230000
H       -2.25350000      -4.66490000       0.54140000
H       -3.86050000      -4.54070000      -0.20190000
H       -0.93460000      -3.84760000      -2.85580000
