23
Properties=species:S:1:pos:R:3 gdb_68404=T pbc="F F F"
C       -0.03990000       1.51270000       0.04120000
C        0.02180000       0.00200000       0.04570000
C        0.86480000      -0.79900000      -1.00060000
C        0.73820000      -1.93510000       0.05010000
C        0.80960000      -0.81290000       1.12080000
C       -0.77080000      -2.23760000       0.02050000
C       -1.32720000      -0.76880000      -0.02080000
C       -2.31670000      -0.44370000       1.09750000
O       -1.92160000      -0.44880000      -1.28190000
H        0.96400000       1.94710000      -0.00560000
H       -0.60750000       1.86950000      -0.82380000
H       -0.52440000       1.90010000       0.94470000
H        0.43300000      -0.95020000      -1.99120000
H        1.88440000      -0.41240000      -1.07850000
H        1.41860000      -2.78710000       0.06370000
H        1.82130000      -0.42220000       1.25830000
H        0.34870000      -0.99160000       2.09720000
H       -1.07800000      -2.78810000      -0.87370000
H       -1.10450000      -2.79310000       0.90330000
H       -1.87990000      -0.58350000       2.09000000
H       -2.66660000       0.58910000       1.01250000
H       -3.19160000      -1.10300000       1.03350000
H       -2.77520000      -0.89140000      -1.32780000
