17
Properties=species:S:1:pos:R:3 gdb_4022=T pbc="F F F"
C       -0.00380000       1.51960000      -0.07940000
C        0.01950000      -0.01430000       0.03670000
C        0.73200000      -0.47030000       1.32170000
C       -1.39320000      -0.57540000      -0.01830000
N       -1.86700000      -1.37790000      -0.90780000
O       -0.92770000      -1.71590000      -1.88010000
C       -2.31210000      -0.19310000       1.00690000
C       -3.03670000       0.16700000       1.89870000
H        1.01740000       1.91310000      -0.05950000
H       -0.47400000       1.84070000      -1.01360000
H       -0.55750000       1.96840000       0.75110000
H        0.55470000      -0.42140000      -0.82260000
H        0.20940000      -0.10590000       2.21150000
H        0.78410000      -1.56140000       1.38170000
H        1.75410000      -0.07900000       1.34320000
H       -1.43360000      -2.30500000      -2.45010000
H       -3.69250000       0.47210000       2.67640000
