23
Properties=species:S:1:pos:R:3 gdb_122876=T pbc="F F F"
C       -0.17920000       1.45860000      -0.04640000
C        0.01410000      -0.05640000      -0.00560000
C        0.77880000      -0.48760000       1.25570000
O       -1.29630000      -0.62340000      -0.00130000
C        0.74810000      -0.52260000      -1.27140000
O        0.74850000      -1.94080000      -1.28670000
C        1.45300000      -2.50300000      -2.38120000
C        1.21850000      -4.00390000      -2.35410000
O       -0.14340000      -4.32860000      -2.55140000
H        0.78310000       1.97860000      -0.07330000
H       -0.76190000       1.74670000      -0.92590000
H       -0.72350000       1.78650000       0.84340000
H        0.19900000      -0.22680000       2.14490000
H        0.94610000      -1.56820000       1.25040000
H        1.75460000       0.00600000       1.31890000
H       -1.17840000      -1.56940000      -0.14330000
H        0.23120000      -0.13850000      -2.16410000
H        1.78140000      -0.14140000      -1.28130000
H        1.07950000      -2.08470000      -3.32890000
H        2.52870000      -2.27590000      -2.30430000
H        1.78080000      -4.47560000      -3.16650000
H        1.59780000      -4.40830000      -1.40200000
H       -0.64080000      -3.79500000      -1.92220000
