19
Properties=species:S:1:pos:R:3 gdb_106850=T pbc="F F F"
C        0.05600000       1.49020000      -0.30220000
C        0.01050000       0.04660000       0.21860000
C       -1.38600000      -0.50240000       0.24290000
C       -2.49750000      -0.15210000       1.25210000
C       -3.01040000      -1.62650000       1.18160000
C       -1.89780000      -1.93420000       0.16350000
N       -1.95890000      -1.02910000      -0.98640000
C       -1.19190000      -3.17270000       0.04090000
N       -0.62510000      -4.18000000      -0.01360000
H        1.08260000       1.86680000      -0.31120000
H       -0.33470000       1.54540000      -1.32280000
H       -0.53960000       2.16160000       0.32570000
H        0.62430000      -0.59920000      -0.41760000
H        0.43170000      -0.00100000       1.23010000
H       -2.11340000       0.10410000       2.24190000
H       -3.18940000       0.63210000       0.93000000
H       -2.88270000      -2.15910000       2.12530000
H       -4.02790000      -1.79280000       0.81530000
H       -2.91190000      -0.71650000      -1.16830000
