15
Properties=species:S:1:pos:R:3 gdb_127163=T pbc="F F F"
C        0.06370000       1.47610000      -0.00830000
N        0.00730000       0.02200000       0.00840000
C       -0.05110000      -0.67270000       1.20590000
N       -0.05770000      -0.07040000       2.32720000
C        0.01450000      -0.63480000      -1.20450000
C        0.06760000      -0.14300000      -2.47600000
O        0.04960000      -1.18850000      -3.31950000
N       -0.01610000      -2.34570000      -2.53870000
N       -0.03560000      -2.00680000      -1.32000000
H        0.98280000       1.81990000      -0.49720000
H       -0.79890000       1.88830000      -0.54500000
H        0.04910000       1.81870000       1.02470000
H       -0.08860000      -1.75200000       1.05180000
H       -0.10390000      -0.74520000       3.08640000
H        0.11710000       0.84050000      -2.90650000
