18
Properties=species:S:1:pos:R:3 gdb_11793=T pbc="F F F"
C        0.04050000       1.36360000       0.08440000
O       -0.09680000      -0.03410000      -0.09230000
C        0.61610000      -0.55900000      -1.15520000
C        2.18480000      -0.54310000      -1.27580000
C        1.84660000      -1.68150000      -2.26760000
C        0.70840000      -2.10120000      -1.30730000
O        1.15390000      -1.00350000      -3.33420000
C        0.23410000      -0.16940000      -2.60370000
H        1.09410000       1.65520000       0.19790000
H       -0.39210000       1.93270000      -0.75010000
H       -0.49790000       1.62110000       0.99900000
H        2.67960000       0.34010000      -1.68570000
H        2.67110000      -0.88960000      -0.36250000
H        2.58170000      -2.36770000      -2.68050000
H        1.06120000      -2.58270000      -0.39430000
H       -0.14440000      -2.63150000      -1.73620000
H       -0.80360000      -0.42560000      -2.84800000
H        0.41080000       0.88550000      -2.84320000
