15
Properties=species:S:1:pos:R:3 gdb_20244=T pbc="F F F"
C       -0.19250000       1.29500000      -0.11520000
C        1.38470000       1.21420000      -0.01520000
C        1.31210000       0.28760000       1.21610000
C        2.34450000      -0.60410000       0.54390000
C        1.56340000      -1.25960000      -0.52520000
C        0.12930000      -1.08530000      -0.32760000
C       -0.04320000      -0.07390000       0.56830000
N        2.23140000       0.16160000      -0.74660000
H       -0.53600000       2.13460000       0.50050000
H       -0.67840000       1.31250000      -1.09160000
H        1.94720000       2.14970000      -0.00670000
H        1.35770000       0.63780000       2.24370000
H        3.29230000      -0.95990000       0.92910000
H        2.01720000      -1.99450000      -1.17890000
H       -0.56450000      -1.26210000      -1.14400000
