12
Properties=species:S:1:pos:R:3 gdb_20752=T pbc="F F F"
C        0.00980000       1.48870000       0.00540000
C       -0.00120000      -0.00040000      -0.00620000
N       -0.08620000      -0.69460000      -1.11440000
O       -0.06350000      -2.02010000      -0.68370000
C        0.03410000      -1.97700000       0.65830000
N        0.07630000      -0.76560000       1.13580000
C        0.07690000      -3.20010000       1.36190000
C        0.11260000      -4.24720000       1.95020000
H        0.93400000       1.85580000       0.46120000
H       -0.06880000       1.87470000      -1.01180000
H       -0.82470000       1.86760000       0.60230000
H        0.14450000      -5.17040000       2.47580000
