17
Properties=species:S:1:pos:R:3 gdb_11452=T pbc="F F F"
C       -0.09820000       1.41630000       0.01380000
C       -0.10450000      -0.07240000      -0.04770000
N       -1.09440000      -0.83720000       0.18170000
C       -0.62290000      -2.22090000      -0.01150000
C       -1.50700000      -2.90630000      -1.05810000
O       -2.86050000      -2.89160000      -0.66900000
C        0.86020000      -2.06290000      -0.42710000
O        1.08860000      -0.63610000      -0.38010000
H        0.63150000       1.75950000       0.75380000
H        0.19910000       1.83370000      -0.95310000
H       -1.08980000       1.77860000       0.28210000
H       -0.73020000      -2.76450000       0.93440000
H       -1.35340000      -2.40450000      -2.02990000
H       -1.21390000      -3.95600000      -1.17690000
H       -3.03670000      -1.98720000      -0.37810000
H        1.56410000      -2.54670000       0.25390000
H        1.05870000      -2.40780000      -1.44820000
