14
Properties=species:S:1:pos:R:3 gdb_5550=T pbc="F F F"
C        0.07180000       1.21130000      -0.26250000
O       -0.18170000       0.09990000       0.60820000
C       -1.27290000      -0.62330000       0.30670000
C       -1.39720000      -1.94100000      -0.01030000
O       -0.41450000      -2.86710000      -0.17520000
C       -2.80130000      -2.19410000      -0.13680000
C       -3.41620000      -1.00800000       0.10790000
O       -2.50420000      -0.03500000       0.39030000
H        1.00830000       1.65890000       0.07420000
H        0.17010000       0.87520000      -1.30150000
H       -0.73360000       1.94900000      -0.19370000
H        0.42560000      -2.44240000       0.03310000
H       -3.26840000      -3.13450000      -0.38110000
H       -4.44720000      -0.69740000       0.11670000
