19
Properties=species:S:1:pos:R:3 gdb_96320=T pbc="F F F"
C        0.16030000       1.54430000       0.02610000
C        0.02160000       0.01840000       0.01380000
C        0.54010000      -0.54290000      -1.31530000
O        0.18030000      -1.90510000      -1.51990000
C        0.84580000      -2.79290000      -0.69730000
O        0.38950000      -2.81030000       0.65540000
C        0.75840000      -1.74930000       1.44870000
N        1.26200000      -2.22010000       2.64100000
N        0.68350000      -0.50890000       1.19940000
H        1.21140000       1.83590000      -0.07330000
H       -0.40860000       2.00400000      -0.78860000
H       -0.20410000       1.94200000       0.97600000
H       -1.04900000      -0.23740000       0.05610000
H        0.09540000       0.00380000      -2.15160000
H        1.63500000      -0.43010000      -1.36470000
H        0.63750000      -3.79670000      -1.07130000
H        1.92930000      -2.59260000      -0.69280000
H        1.04640000      -3.18070000       2.85210000
H        1.20460000      -1.57390000       3.41180000
