18
Properties=species:S:1:pos:R:3 gdb_104260=T pbc="F F F"
C        0.08170000       1.59890000       0.09900000
C        0.10600000       0.06760000       0.02630000
C        0.72340000      -0.47220000      -1.26160000
O        0.01300000      -0.10580000      -2.41590000
C        2.27380000      -0.36330000      -1.34270000
O        2.42040000      -1.78240000      -1.09760000
C        1.01250000      -2.00560000      -1.27780000
C        0.42150000      -2.84680000      -0.23850000
N       -0.06630000      -3.49660000       0.58320000
H        1.08430000       2.02650000      -0.00720000
H       -0.55740000       2.04580000      -0.67230000
H       -0.31880000       1.92750000       1.06150000
H        0.67300000      -0.32980000       0.87480000
H       -0.91110000      -0.33070000       0.11690000
H       -0.31500000       0.79280000      -2.31030000
H        2.62650000      -0.08190000      -2.34130000
H        2.78340000       0.23120000      -0.57770000
H        0.78370000      -2.43100000      -2.26320000
