18
Properties=species:S:1:pos:R:3 gdb_18602=T pbc="F F F"
O       -0.36370000       1.43860000       0.41450000
C       -0.07150000       0.10180000       0.08370000
C        0.42000000      -0.83080000       1.23130000
C       -0.83000000      -1.73980000       1.03670000
C       -1.90580000      -1.65670000       2.12770000
C       -2.59640000      -0.31780000       1.81750000
O       -2.56300000      -0.19880000       0.39680000
C       -1.36360000      -0.76940000      -0.06810000
H        0.46950000       1.89200000       0.57880000
H        0.56630000       0.04110000      -0.81020000
H        1.38280000      -1.31770000       1.05690000
H        0.45330000      -0.32620000       2.20200000
H       -0.61140000      -2.76250000       0.72800000
H       -2.61810000      -2.48060000       2.01890000
H       -1.49250000      -1.69390000       3.13990000
H       -3.64370000      -0.28100000       2.12900000
H       -2.06270000       0.52350000       2.28000000
H       -1.54280000      -1.15320000      -1.07510000
