14
Properties=species:S:1:pos:R:3 gdb_6057=T pbc="F F F"
C        0.36370000       1.29260000       0.04050000
C       -0.58440000       0.11880000      -0.05870000
O       -1.37440000      -0.18480000       0.80730000
C       -0.49830000      -0.65250000      -1.29040000
C       -0.44100000      -1.29400000      -2.31480000
C       -0.38940000      -2.06310000      -3.54960000
C        0.40040000      -3.35080000      -3.48050000
O       -0.95360000      -1.67110000      -4.54680000
H        1.39960000       0.95090000      -0.05890000
H        0.17750000       1.99460000      -0.77960000
H        0.22370000       1.79150000       1.00040000
H        1.43310000      -3.14510000      -3.17880000
H       -0.02950000      -4.01320000      -2.72140000
H        0.38460000      -3.83850000      -4.45610000
