15
Properties=species:S:1:pos:R:3 gdb_33486=T pbc="F F F"
N        0.07630000      -1.17350000      -0.04780000
C        0.02910000      -0.01920000      -0.05000000
C        0.01230000       1.44410000       0.00920000
C       -0.22710000       2.08420000       1.44790000
C        1.14540000       2.75400000       1.36010000
C        2.21500000       1.71900000       1.17340000
C        1.40100000       2.14100000      -0.01480000
C       -0.90470000       1.99110000      -0.98860000
N       -1.61520000       2.45930000      -1.76980000
H       -1.06730000       2.77730000       1.42180000
H       -0.37230000       1.35840000       2.25130000
H        1.35900000       3.75970000       1.69570000
H        3.23280000       2.09360000       1.16780000
H        2.10740000       0.72190000       1.59250000
H        1.82460000       2.56800000      -0.91340000
