20
Properties=species:S:1:pos:R:3 gdb_111421=T pbc="F F F"
C       -0.17810000       0.56500000       0.41360000
O        0.21370000       0.76900000      -0.93990000
C        0.60620000      -0.34310000      -1.68650000
C        1.45750000      -1.48500000      -1.11790000
N        0.62680000      -2.24940000      -0.15600000
C        0.47280000      -2.50840000      -1.60080000
C       -0.45750000      -1.44020000      -2.15570000
O       -1.74400000      -1.42130000      -1.61220000
C       -2.58550000      -0.46330000      -2.22780000
H       -0.96380000      -0.18830000       0.50340000
H        0.67080000       0.25870000       1.03650000
H       -0.54180000       1.53500000       0.76370000
H        1.09430000       0.06770000      -2.57610000
H        2.53860000      -1.54820000      -1.08770000
H        1.21750000      -2.99230000       0.21650000
H        0.66060000      -3.49140000      -2.01360000
H       -0.50130000      -1.47160000      -3.25530000
H       -3.56040000      -0.53270000      -1.73980000
H       -2.19370000       0.55460000      -2.11170000
H       -2.71120000      -0.67360000      -3.30210000
