20
Properties=species:S:1:pos:R:3 gdb_105194=T pbc="F F F"
C       -0.56450000       1.07130000       0.35510000
C       -0.57940000      -0.30410000      -0.32270000
C        0.53430000      -0.45130000      -1.33970000
C        1.95580000      -0.70070000      -0.87010000
C        1.21000000      -1.76830000      -1.60020000
N        0.77670000      -2.96740000      -0.80200000
H        0.32030000      -2.64390000       0.05970000
H        0.08870000      -3.51580000      -1.32360000
H        1.55780000      -3.57940000      -0.55300000
C        0.39510000       0.36190000      -2.69810000
O       -0.59090000       1.10780000      -2.75110000
O        1.30130000       0.09700000      -3.51160000
H        0.36860000       1.23450000       0.90510000
H       -0.65710000       1.83090000      -0.42260000
H       -1.39710000       1.17030000       1.05840000
H       -0.53760000      -1.07810000       0.47500000
H       -1.53300000      -0.43170000      -0.84450000
H        2.75380000      -0.22610000      -1.42910000
H        2.13220000      -0.83600000       0.19600000
H        1.46060000      -2.01430000      -2.62540000
