17
Properties=species:S:1:pos:R:3 gdb_126567=T pbc="F F F"
C        0.03790000       1.60640000       0.11650000
C       -0.00510000       0.08070000       0.00860000
C        0.70990000      -0.59650000       1.18340000
C        0.69360000      -2.08170000       1.12080000
N        0.16040000      -2.81240000       0.21480000
O        0.43110000      -4.14770000       0.63370000
C        1.13200000      -4.10320000       1.80330000
N        1.57200000      -5.03560000       2.51440000
O        1.30160000      -2.77570000       2.11790000
H        1.06860000       1.97750000       0.12410000
H       -0.47660000       2.07090000      -0.72920000
H       -0.44760000       1.95580000       1.03440000
H       -1.04280000      -0.26670000      -0.02830000
H        0.45730000      -0.24520000      -0.92880000
H        1.75880000      -0.27650000       1.23930000
H        0.25950000      -0.29800000       2.13930000
H        1.34270000      -5.94010000       2.11030000
