19
Properties=species:S:1:pos:R:3 gdb_50556=T pbc="F F F"
O        0.18790000       0.10490000       1.03630000
C        0.08910000       1.16470000       0.48000000
C        1.25140000       1.96050000      -0.10420000
C        1.59540000       3.15080000       0.82350000
C        2.63160000       2.50420000       1.75730000
C        3.33670000       1.53830000       0.82250000
C        4.77980000       1.66730000       0.42200000
C        4.30110000       0.48730000       1.25710000
O        2.42420000       1.18520000      -0.20860000
H       -0.89660000       1.67960000       0.36890000
H        0.95050000       2.29950000      -1.10530000
H        2.04460000       3.95550000       0.23510000
H        0.72480000       3.55630000       1.34580000
H        3.31220000       3.22970000       2.20730000
H        2.13020000       1.95810000       2.56370000
H        5.01810000       1.47160000      -0.61750000
H        5.39060000       2.42820000       0.89730000
H        4.58010000       0.44140000       2.30480000
H        4.22730000      -0.47460000       0.76300000
