19
Properties=species:S:1:pos:R:3 gdb_77168=T pbc="F F F"
C        0.12780000       1.46590000       0.10250000
N        0.05720000       0.02750000       0.09510000
C       -1.07460000      -0.90920000       0.08260000
C       -0.02240000      -2.05730000      -0.02710000
C        1.03560000      -0.93120000      -0.02970000
O        2.23280000      -0.85040000      -0.11480000
C       -1.94610000      -0.88380000       1.31140000
C       -3.20840000      -0.09980000       1.31740000
N       -3.24590000      -1.57090000       1.29960000
H        1.18450000       1.74240000       0.07590000
H       -0.37220000       1.89920000      -0.77320000
H       -0.32660000       1.88810000       1.00580000
H       -1.70320000      -0.80300000      -0.81480000
H        0.02520000      -2.72370000       0.83640000
H       -0.05790000      -2.64650000      -0.94490000
H       -1.40060000      -0.99610000       2.24720000
H       -3.56250000       0.35660000       2.23700000
H       -3.47520000       0.44020000       0.41150000
H       -3.45480000      -1.90050000       0.35900000
