12
Properties=species:S:1:pos:R:3 gdb_327=T pbc="F F F"
C       -0.01520000       1.54740000       0.01690000
C       -0.02480000      -0.00110000      -0.04340000
C       -1.39440000      -0.52460000       0.00680000
C       -2.52410000      -0.92770000       0.06470000
C        0.69400000      -0.48950000      -1.22550000
C        1.30050000      -0.86340000      -2.19220000
H        1.01430000       1.91330000       0.01900000
H       -0.53370000       1.96250000      -0.84990000
H       -0.51990000       1.88750000       0.92440000
H        0.50620000      -0.37090000       0.84580000
H       -3.51930000      -1.29550000       0.10980000
H        1.82970000      -1.20570000      -3.04680000
