12
Properties=species:S:1:pos:R:3 gdb_21344=T pbc="F F F"
N       -0.04490000      -1.14760000      -0.29630000
C        0.01790000      -0.02480000      -0.03620000
C        0.07310000       1.40890000       0.28270000
N        1.39310000       1.97850000       0.11280000
C        1.95100000       2.56700000      -0.97050000
N        3.19430000       2.91250000      -0.71080000
C        3.35740000       2.49440000       0.57670000
N        2.29880000       1.92120000       1.12210000
H       -0.63220000       1.94540000      -0.35860000
H       -0.22780000       1.56130000       1.32220000
H        1.41770000       2.71870000      -1.89730000
H        4.27760000       2.62250000       1.12640000
