11
Properties=species:S:1:pos:R:3 gdb_133432=T pbc="F F F"
O       -0.04180000       1.31230000       0.00990000
C        0.03340000      -0.02500000       0.00210000
N        1.19750000      -0.59710000      -0.00730000
N        1.16480000      -1.95720000      -0.01460000
C        0.05300000      -2.76880000      -0.01300000
O        0.08290000      -3.98180000      -0.01970000
C       -1.16650000      -1.92180000      -0.00170000
F       -2.29710000      -2.57980000       0.00090000
N       -1.18850000      -0.64600000       0.00540000
H        0.86250000       1.65340000       0.00680000
H        2.07030000      -2.40700000      -0.02190000
