16
Properties=species:S:1:pos:R:3 gdb_2470=T pbc="F F F"
O       -0.51090000       1.21850000      -0.81680000
C       -0.04120000       0.08210000      -0.08960000
C       -1.24840000      -0.83170000       0.19160000
C       -1.21970000      -1.86370000      -0.92660000
C       -1.05340000      -1.37330000      -2.31870000
N        0.11200000      -1.88040000      -1.56950000
C        0.90400000      -0.82540000      -0.91540000
H        0.25490000       1.74470000      -1.06860000
H        0.43920000       0.41410000       0.84120000
H       -1.12760000      -1.32980000       1.15920000
H       -2.17030000      -0.24530000       0.22770000
H       -1.67880000      -2.83120000      -0.74320000
H       -1.35210000      -2.00640000      -3.14970000
H       -1.13680000      -0.30500000      -2.48930000
H        1.47560000      -0.25380000      -1.65590000
H        1.62250000      -1.31820000      -0.24940000
