21
Properties=species:S:1:pos:R:3 gdb_62578=T pbc="F F F"
C        0.06670000       1.50120000       0.04680000
C       -0.07690000      -0.01040000      -0.02310000
O       -1.35090000      -0.37990000      -0.49110000
C        1.20990000      -0.75810000      -0.32420000
C        0.59210000      -0.76720000       1.08990000
C        0.46090000      -2.28730000       1.30030000
C        1.87700000      -2.75040000       0.80000000
C        1.28670000      -2.27550000      -0.57650000
C       -0.05700000      -2.85500000      -0.05030000
H        1.03470000       1.80120000       0.45750000
H       -0.02250000       1.94290000      -0.95350000
H       -0.72480000       1.92280000       0.67400000
H       -1.40430000      -0.11740000      -1.41720000
H        2.09170000      -0.16990000      -0.56150000
H        1.01460000      -0.19130000       1.90800000
H        0.05000000      -2.61560000       2.25540000
H        2.75330000      -2.22240000       1.18790000
H        2.02310000      -3.83300000       0.85830000
H        1.71550000      -2.59390000      -1.52760000
H       -0.02830000      -3.94730000      -0.04500000
H       -0.99570000      -2.49250000      -0.45250000
