16
Properties=species:S:1:pos:R:3 gdb_127595=T pbc="F F F"
C       -0.01410000       1.40350000       0.00180000
N       -0.01540000      -0.04250000       0.02300000
N       -0.03220000      -0.74010000      -1.11220000
C       -0.03330000      -2.02530000      -0.74800000
C       -0.01190000      -2.16760000       0.65310000
N       -0.07330000      -3.33610000       1.40890000
C        0.00300000      -0.85670000       1.13470000
C        0.03480000      -0.38350000       2.45620000
C        0.07220000      -0.00140000       3.60040000
H        0.87960000       1.79950000       0.49390000
H       -0.02320000       1.70850000      -1.04380000
H       -0.89830000       1.80100000       0.50960000
H       -0.05080000      -2.80040000      -1.49980000
H        0.40170000      -4.12020000       0.98320000
H        0.24140000      -3.20820000       2.36190000
H        0.09210000       0.33880000       4.60590000
