17
Properties=species:S:1:pos:R:3 gdb_55181=T pbc="F F F"
N        0.42250000       0.50410000       0.94920000
C        0.00760000      -0.05080000      -0.21620000
O        0.56280000       0.10870000      -1.28770000
C       -1.23860000      -0.93790000      -0.11350000
N       -0.95130000      -2.36580000       0.23450000
C       -2.10310000      -2.41460000       1.16700000
C       -1.66060000      -2.14990000       2.61300000
O       -1.67790000      -0.70920000       2.37960000
C       -2.25000000      -0.87840000       1.05860000
H        1.28440000       1.02460000       0.94600000
H       -0.03690000       0.26420000       1.81710000
H       -1.77230000      -0.82900000      -1.06530000
H       -1.00910000      -2.99860000      -0.55350000
H       -2.88640000      -3.14630000       0.96790000
H       -2.39010000      -2.41880000       3.38620000
H       -0.66470000      -2.51790000       2.87500000
H       -3.16530000      -0.29890000       0.93110000
