19
Properties=species:S:1:pos:R:3 gdb_43383=T pbc="F F F"
O        0.04510000      -0.05530000      -0.00320000
C       -0.00670000       1.15380000      -0.13320000
C       -1.29380000       1.86690000      -0.25530000
C       -1.38760000       3.20300000      -0.26760000
C       -0.21760000       4.13560000      -0.12180000
C        1.13830000       3.51710000      -0.51700000
C        2.27370000       3.77050000       0.51690000
C        1.96050000       2.38850000       1.15180000
C        1.24660000       2.00060000      -0.18240000
H       -2.17410000       1.23400000      -0.31360000
H       -2.37100000       3.66500000      -0.33540000
H       -0.39850000       5.04860000      -0.70040000
H       -0.19280000       4.46830000       0.92700000
H        1.36530000       3.77510000      -1.55460000
H        3.25820000       3.78040000       0.04140000
H        2.18390000       4.65640000       1.15180000
H        2.79600000       1.76180000       1.46730000
H        1.25290000       2.46650000       1.98230000
H        1.95850000       1.49780000      -0.84280000
