18
Properties=species:S:1:pos:R:3 gdb_90358=T pbc="F F F"
C        0.03750000       1.56690000      -0.02790000
C       -0.02860000       0.05750000      -0.03250000
C       -1.41490000      -0.62730000       0.01410000
C       -0.82880000      -1.44270000       1.18370000
O       -1.13910000      -2.42760000       1.78630000
N        0.37090000      -0.67040000       1.23880000
C        1.55410000      -1.29710000       0.56710000
C        1.10160000      -0.69920000      -0.80310000
O        0.57440000      -1.61760000      -1.73130000
H        1.05300000       1.92160000       0.17700000
H       -0.27050000       1.96500000      -1.00140000
H       -0.62510000       1.98150000       0.73770000
H       -2.24510000       0.03890000       0.26240000
H       -1.68000000      -1.24610000      -0.84360000
H        2.49810000      -0.90250000       0.95240000
H        1.55820000      -2.38890000       0.62550000
H        1.83630000      -0.03110000      -1.27290000
H        1.29470000      -2.15670000      -2.07450000
