20
Properties=species:S:1:pos:R:3 gdb_79263=T pbc="F F F"
C       -0.11950000       1.54730000      -0.00360000
C        0.04260000       0.03550000       0.03420000
N        0.88350000      -0.48250000      -1.07570000
C        2.26140000      -0.58570000      -0.51470000
C        2.25820000      -0.11860000       0.93220000
C        0.80690000      -0.56490000       1.23860000
O        0.24100000      -0.23440000       2.47420000
C        0.84440000      -2.05370000       0.80550000
C        1.38830000      -1.79580000      -0.59250000
H        0.84270000       2.06560000      -0.03230000
H       -0.67820000       1.84130000      -0.89650000
H       -0.66740000       1.88700000       0.88010000
H       -0.94720000      -0.43060000      -0.03810000
H        3.08270000      -0.39910000      -1.19600000
H        2.99570000      -0.65130000       1.54370000
H        2.41250000       0.95530000       1.05840000
H        0.77010000      -0.63340000       3.17220000
H        1.52120000      -2.66170000       1.41680000
H       -0.14930000      -2.51130000       0.81550000
H        1.51480000      -2.57820000      -1.33140000
