16
Properties=species:S:1:pos:R:3 gdb_42414=T pbc="F F F"
N       -0.01880000       1.41290000      -0.05640000
C        0.01060000       0.13520000       0.00880000
N       -1.11770000      -0.63530000       0.07080000
C       -2.44000000      -0.07460000       0.00270000
C       -3.24570000      -0.15950000      -1.32090000
O       -4.35400000      -0.77690000      -0.63480000
C       -3.58840000      -0.93270000       0.57290000
C        1.24520000      -0.63590000       0.04580000
N        2.24570000      -1.21510000       0.06430000
H        0.91860000       1.80510000      -0.04250000
H       -1.01120000      -1.63050000      -0.04470000
H       -2.39260000       0.93620000       0.40450000
H       -3.52500000       0.78720000      -1.79410000
H       -2.79640000      -0.82560000      -2.07060000
H       -3.30990000      -1.98170000       0.75730000
H       -4.11000000      -0.54500000       1.45420000
