11
Properties=species:S:1:pos:R:3 gdb_21699=T pbc="F F F"
N        0.05370000       1.32760000      -0.01310000
C       -0.02820000      -0.01910000       0.01770000
N       -1.18850000      -0.61400000       0.03830000
O       -1.19460000      -2.00230000       0.11530000
N       -0.08060000      -2.75850000       0.15910000
C        1.07520000      -2.17390000       0.12030000
C        1.26010000      -0.74300000       0.03680000
O        2.33110000      -0.15730000      -0.02120000
H        0.96990000       1.71080000      -0.18380000
H       -0.76740000       1.88180000      -0.18450000
H        1.93710000      -2.83250000       0.15360000
