18
Properties=species:S:1:pos:R:3 gdb_7357=T pbc="F F F"
C       -0.88140000       1.25620000      -0.43440000
O       -1.39800000      -0.05190000      -0.31460000
C       -0.59840000      -0.88510000       0.48480000
C       -1.19610000      -2.28000000       0.59410000
O       -0.77920000      -3.05040000       1.43300000
C       -2.29910000      -2.71900000      -0.36370000
C       -1.76860000      -2.79160000      -1.80750000
O       -2.80640000      -3.96180000       0.04870000
H       -1.57060000       1.81970000      -1.06660000
H       -0.80640000       1.75140000       0.54550000
H        0.11600000       1.25690000      -0.89980000
H        0.42000000      -0.98760000       0.06970000
H       -0.48560000      -0.48950000       1.50660000
H       -3.09260000      -1.95890000      -0.32310000
H       -0.92880000      -3.49090000      -1.87020000
H       -2.56760000      -3.16300000      -2.45360000
H       -1.45430000      -1.80720000      -2.16090000
H       -2.21070000      -4.26270000       0.75330000
