11
Properties=species:S:1:pos:R:3 gdb_21340=T pbc="F F F"
N       -0.29570000      -0.86010000      -0.88250000
C       -0.10760000       0.08700000      -0.24950000
C        0.13160000       1.30180000       0.53070000
C        1.45170000       1.94380000       0.20720000
N        2.20420000       2.45660000       1.14290000
O        3.28920000       2.97730000       0.50360000
N        3.21570000       2.78110000      -0.84610000
C        2.09450000       2.14760000      -1.04680000
H       -0.68740000       2.00460000       0.33340000
H        0.10010000       1.06770000       1.59870000
H        1.78460000       1.85300000      -2.03730000
