22
Properties=species:S:1:pos:R:3 gdb_5963=T pbc="F F F"
C       -0.08750000       1.64090000       0.01170000
C        0.02480000       0.11240000       0.00240000
C       -1.35340000      -0.56120000       0.01200000
C       -1.37080000      -2.11930000       0.00380000
C       -0.69680000      -2.68130000      -1.26980000
C       -0.67250000      -2.69480000       1.25820000
C       -2.77690000      -2.54280000       0.01510000
C       -3.93080000      -2.88160000       0.02420000
H        0.90010000       2.11260000       0.00480000
H       -0.63660000       2.00290000      -0.86450000
H       -0.61970000       1.99340000       0.90220000
H        0.59210000      -0.19970000      -0.88220000
H        0.60890000      -0.20910000       0.87260000
H       -1.91000000      -0.22350000       0.89510000
H       -1.92680000      -0.21410000      -0.85660000
H        0.36880000      -2.43530000      -1.28580000
H       -0.79390000      -3.76990000      -1.30490000
H       -1.16110000      -2.27120000      -2.17140000
H       -1.11930000      -2.29440000       2.17280000
H       -0.76890000      -3.78370000       1.28350000
H        0.39330000      -2.44890000       1.25630000
H       -4.94880000      -3.18330000       0.03180000
