20
Properties=species:S:1:pos:R:3 gdb_58167=T pbc="F F F"
C        0.26430000       1.39150000       0.19280000
C       -0.09470000      -0.08290000      -0.04150000
C       -1.60670000      -0.31080000      -0.12140000
N        0.59620000      -0.61800000      -1.23090000
C        0.06230000      -0.31450000      -2.54820000
C        1.83930000      -1.15500000      -1.05030000
N        2.41450000      -1.22620000       0.09820000
C        2.49510000      -1.68380000      -2.23980000
N        3.08800000      -2.12760000      -3.12860000
H        1.34490000       1.50710000       0.30590000
H       -0.07390000       2.02540000      -0.63430000
H       -0.21550000       1.75460000       1.10690000
H        0.30070000      -0.66140000       0.79580000
H       -2.08250000       0.30310000      -0.89290000
H       -1.84070000      -1.36090000      -0.32030000
H       -2.05980000      -0.03920000       0.83620000
H       -0.05160000       0.76740000      -2.69130000
H        0.73550000      -0.68600000      -3.32050000
H       -0.91490000      -0.78440000      -2.69550000
H        3.30530000      -1.70990000       0.02890000
