17
Properties=species:S:1:pos:R:3 gdb_54573=T pbc="F F F"
C       -0.35400000       1.40740000       0.10100000
C        0.04890000      -0.04940000      -0.02340000
O        0.44600000      -0.69950000       0.92550000
C       -0.04080000      -0.65670000      -1.36420000
C       -0.71520000      -0.24320000      -2.67250000
C       -0.35080000      -1.66960000      -3.15830000
O        1.10660000      -1.63310000      -3.24300000
C        1.10490000      -1.63830000      -1.82850000
C       -0.26250000      -2.15070000      -1.66160000
H        0.19950000       2.02210000      -0.61770000
H       -1.41820000       1.52650000      -0.13360000
H       -0.16300000       1.75660000       1.11630000
H       -1.79500000      -0.12500000      -2.54810000
H       -0.30090000       0.58310000      -3.25800000
H       -0.82800000      -2.16030000      -4.00280000
H        2.02110000      -1.76150000      -1.26870000
H       -0.71830000      -2.92040000      -1.05580000
