17
Properties=species:S:1:pos:R:3 gdb_103914=T pbc="F F F"
O       -0.07740000       1.30300000      -0.48190000
C        0.01490000       0.03030000       0.15750000
C       -1.38110000      -0.54170000       0.12350000
O       -2.32830000       0.28880000       0.72280000
C       -1.81620000      -1.39630000      -1.05620000
C       -1.61430000      -1.99710000       0.31880000
O       -0.47660000      -2.79930000       0.57460000
C       -0.54990000      -4.08790000       0.17090000
O        0.34210000      -4.86180000       0.34100000
H        0.69240000       1.82330000      -0.23610000
H        0.72450000      -0.63220000      -0.35230000
H        0.33260000       0.13740000       1.20390000
H       -2.16770000       1.16620000       0.35030000
H       -2.83710000      -1.29300000      -1.40460000
H       -1.07590000      -1.62130000      -1.81620000
H       -2.49160000      -2.27300000       0.89670000
H       -1.51140000      -4.32800000      -0.32000000
