20
Properties=species:S:1:pos:R:3 gdb_62594=T pbc="F F F"
C        0.05910000       1.50810000       0.02190000
C       -0.02260000      -0.01880000      -0.02690000
C       -1.47280000      -0.50580000      -0.01180000
C        0.78990000      -0.61760000      -1.17400000
C        2.22730000      -0.76520000      -0.73970000
C        1.30940000      -1.97230000      -0.76000000
C        1.22510000      -1.91650000       0.79470000
C        2.12600000      -0.73240000       0.81470000
N        0.69850000      -0.58670000       1.13650000
H        1.10110000       1.84140000       0.02450000
H       -0.43850000       1.95160000      -0.84670000
H       -0.42530000       1.88910000       0.92560000
H       -2.01910000      -0.12600000      -0.88130000
H       -1.51570000      -1.59870000      -0.03340000
H       -1.98370000      -0.16010000       0.89150000
H        0.55320000      -0.42030000      -2.21300000
H        3.09460000      -0.54490000      -1.34480000
H        1.33890000      -2.85390000      -1.38360000
H        1.09830000      -2.74430000       1.48050000
H        2.87860000      -0.40410000       1.51990000
