21
Properties=species:S:1:pos:R:3 gdb_88157=T pbc="F F F"
C        0.13210000       1.54090000       0.12120000
C        0.03910000       0.03320000       0.07040000
C        1.25420000      -0.80230000      -0.29920000
C        0.73150000      -0.81070000       1.10660000
O        1.54310000      -0.17160000       2.07630000
C        1.15020000      -0.65140000       3.35690000
C        0.77340000      -2.11360000       3.10610000
C        0.04080000      -2.01000000       1.75470000
O       -1.34130000      -1.69750000       1.91570000
H        1.07600000       1.85730000       0.57210000
H        0.06530000       1.97430000      -0.88260000
H       -0.68050000       1.96230000       0.72290000
H       -0.91930000      -0.35830000      -0.25780000
H        1.12450000      -1.68650000      -0.91560000
H        2.18990000      -0.27370000      -0.45270000
H        1.99220000      -0.51410000       4.03970000
H        0.28490000      -0.09000000       3.73960000
H        1.67820000      -2.72080000       2.99840000
H        0.14590000      -2.55230000       3.88650000
H        0.15640000      -2.91800000       1.14890000
H       -1.77120000      -2.46660000       2.30400000
