16
Properties=species:S:1:pos:R:3 gdb_109526=T pbc="F F F"
C        0.35250000       1.27660000       0.25800000
N       -0.29120000       0.12000000      -0.36210000
C        0.48760000      -0.53840000      -1.33990000
C        1.60190000      -1.55920000      -1.01310000
C        1.87740000      -1.87480000       0.35580000
N        2.10130000      -2.09880000       1.46870000
C        0.26560000      -1.99620000      -1.64770000
C       -0.68370000      -2.74650000      -0.87430000
N       -1.46310000      -3.33090000      -0.25100000
H        1.28900000       1.03600000       0.78190000
H        0.57090000       2.02440000      -0.51210000
H       -0.34140000       1.72590000       0.97200000
H       -0.65840000      -0.52160000       0.33140000
H        0.71470000       0.08380000      -2.20220000
H        2.46150000      -1.60280000      -1.67350000
H        0.32560000      -2.29900000      -2.68740000
