16
Properties=species:S:1:pos:R:3 gdb_75760=T pbc="F F F"
C        0.00770000       1.50020000       0.05510000
C       -0.00810000      -0.02880000       0.03840000
N        1.07070000      -0.63900000      -0.76480000
C        1.80220000      -1.14430000       0.27820000
O        2.87920000      -1.67290000       0.35240000
C        0.71740000      -0.70300000       1.29670000
O        1.08980000       0.08730000       2.37870000
C       -1.33410000      -0.55500000      -0.25880000
C       -2.43220000      -0.98350000      -0.49530000
H        1.01190000       1.86970000       0.27800000
H       -0.30380000       1.89920000      -0.91410000
H       -0.67850000       1.87270000       0.81970000
H        1.20370000      -0.68760000      -1.76480000
H        0.12810000      -1.54420000       1.66960000
H        1.94970000       0.48150000       2.19870000
H       -3.40090000      -1.36630000      -0.70380000
