16
Properties=species:S:1:pos:R:3 gdb_133642=T pbc="F F F"
F        0.07220000       0.05770000      -0.03890000
C       -0.02370000       1.39830000      -0.01630000
F        1.21930000       1.88760000      -0.15920000
F       -0.72800000       1.76830000      -1.09620000
C       -0.67630000       1.89010000       1.25940000
C        0.10180000       1.48230000       2.51420000
C       -0.57070000       1.98020000       3.80300000
C        0.14790000       1.48460000       5.03950000
O        0.54440000       2.18490000       5.93340000
H       -0.75740000       2.97910000       1.18390000
H       -1.69360000       1.48590000       1.27990000
H        0.19200000       0.39020000       2.54000000
H        1.12010000       1.88020000       2.45080000
H       -0.61920000       3.07240000       3.84240000
H       -1.59980000       1.59340000       3.84680000
H        0.29320000       0.37850000       5.06940000
