15
Properties=species:S:1:pos:R:3 gdb_28132=T pbc="F F F"
N       -0.03070000       1.28440000      -0.11510000
C       -0.02060000      -0.07580000      -0.04190000
N       -1.10610000      -0.79560000      -0.03020000
C       -0.61480000      -2.09420000      -0.02990000
C        0.73490000      -2.26560000      -0.03440000
C        1.30180000      -0.87560000      -0.04580000
C        0.94450000      -3.67680000      -0.01040000
C       -0.30690000      -4.22810000       0.00240000
O       -1.28730000      -3.25350000      -0.00850000
H        0.78130000       1.78630000       0.20360000
H       -0.91820000       1.73040000       0.06140000
H        1.89300000      -0.62610000      -0.93460000
H        1.91250000      -0.62320000       0.83010000
H        1.87050000      -4.23130000      -0.00620000
H       -0.66930000      -5.24140000       0.01520000
