16
Properties=species:S:1:pos:R:3 gdb_43649=T pbc="F F F"
O       -0.05600000      -0.07010000      -0.04770000
C       -0.00490000       1.14040000      -0.02120000
N       -1.07430000       2.01170000       0.00650000
C       -0.68980000       3.40160000       0.05200000
C       -1.23560000       4.14040000       1.30260000
C       -2.69230000       4.15520000       1.33250000
C       -3.89410000       4.13660000       1.32040000
C        0.81740000       3.30360000       0.03350000
C        1.20170000       2.02800000      -0.00850000
H       -2.02980000       1.69880000       0.04340000
H       -1.04750000       3.94260000      -0.83720000
H       -0.84360000       3.64730000       2.19960000
H       -0.84970000       5.16740000       1.30330000
H       -4.95620000       4.13590000       1.32940000
H        1.44640000       4.18460000       0.05470000
H        2.20580000       1.62930000      -0.03120000
