16
Properties=species:S:1:pos:R:3 gdb_9493=T pbc="F F F"
C       -0.42580000       1.43500000       0.04170000
C        0.19960000       0.06370000      -0.05310000
O        1.48230000       0.05300000      -0.72040000
C        2.03920000      -0.84640000       0.25000000
C        0.83800000      -0.59870000       1.22050000
N        1.03130000       0.32320000       2.32840000
C        0.16780000      -1.80340000       1.70480000
N       -0.34540000      -2.77290000       2.06820000
H        0.22800000       2.15110000       0.54400000
H       -0.63060000       1.80640000      -0.96710000
H       -1.37050000       1.38250000       0.59050000
H       -0.49020000      -0.63640000      -0.54380000
H        2.11560000      -1.87460000      -0.12570000
H        3.01410000      -0.51320000       0.62290000
H        1.51300000      -0.14040000       3.09290000
H        1.61590000       1.09810000       2.03030000
