23
Properties=species:S:1:pos:R:3 gdb_121379=T pbc="F F F"
C        0.01640000       1.55730000      -0.04590000
C        0.01640000       0.02720000      -0.00670000
C        0.72070000      -0.53530000       1.23210000
C        0.74820000      -2.06660000       1.27580000
O        1.44460000      -2.50770000       0.11720000
C        1.78300000      -3.88260000       0.15420000
C        2.79040000      -4.17060000       1.26980000
C        2.32380000      -3.52180000       2.54630000
C        1.37590000      -2.58760000       2.54460000
H        1.03820000       1.95300000      -0.05510000
H       -0.49280000       1.93310000      -0.93900000
H       -0.49160000       1.97990000       0.82880000
H       -1.01800000      -0.34160000      -0.03100000
H        0.50510000      -0.37140000      -0.90130000
H        1.75570000      -0.17330000       1.27390000
H        0.22140000      -0.17440000       2.14090000
H       -0.29810000      -2.43000000       1.22530000
H        0.87830000      -4.49450000       0.30550000
H        2.19220000      -4.12440000      -0.83100000
H        2.89650000      -5.25470000       1.40510000
H        3.78450000      -3.79600000       0.98990000
H        2.77390000      -3.84790000       3.48030000
H        1.01440000      -2.15260000       3.47310000
