19
Properties=species:S:1:pos:R:3 gdb_107947=T pbc="F F F"
O       -0.04150000       1.38460000       0.01560000
C        0.03530000      -0.03550000      -0.00290000
C       -1.36860000      -0.56580000       0.00690000
C       -2.29750000      -0.38560000       1.24530000
C       -2.99290000      -1.65590000       0.76850000
C       -1.77690000      -2.09860000      -0.02830000
C       -2.98920000      -1.62790000      -0.77540000
O       -3.82800000      -2.43310000      -1.51860000
C       -2.32020000      -0.32690000      -1.20700000
H        0.85430000       1.73410000       0.01120000
H        0.56310000      -0.39650000      -0.90100000
H        0.58180000      -0.41750000       0.87540000
H       -1.75290000      -0.54850000       2.18110000
H       -2.86950000       0.54610000       1.31060000
H       -3.69130000      -2.29660000       1.29280000
H       -1.21740000      -3.02230000      -0.05110000
H       -4.72750000      -2.09930000      -1.42820000
H       -2.89800000       0.60390000      -1.21850000
H       -1.79440000      -0.45470000      -2.15790000
