19
Properties=species:S:1:pos:R:3 gdb_68431=T pbc="F F F"
O       -0.12690000       1.38080000      -0.02450000
C       -0.05640000      -0.00490000       0.01620000
C        0.35810000      -0.81260000       1.28900000
C       -0.42770000      -1.93810000       0.56200000
C       -1.37150000      -0.81790000       0.03660000
C        0.46230000      -2.21500000      -0.66640000
C        0.77580000      -0.73100000      -1.08960000
C        0.39680000      -0.38330000      -2.44850000
C        0.08180000      -0.09420000      -3.57270000
H        0.73160000       1.73240000      -0.28280000
H        1.42300000      -0.96790000       1.49140000
H       -0.15230000      -0.43970000       2.17890000
H       -0.81430000      -2.80230000       1.09910000
H       -2.05800000      -0.45050000       0.80190000
H       -1.89380000      -0.97040000      -0.91110000
H        1.37190000      -2.76780000      -0.41640000
H       -0.06360000      -2.75400000      -1.45730000
H        1.84130000      -0.50680000      -0.95000000
H       -0.19740000       0.16360000      -4.56410000
