20
Properties=species:S:1:pos:R:3 gdb_76349=T pbc="F F F"
C        0.30570000       1.60660000      -0.07370000
C        0.12270000       0.10070000      -0.06000000
C        0.83400000      -0.75760000      -1.14540000
O        1.85340000      -0.06200000      -1.80800000
C        1.29660000      -1.66100000       0.04080000
C        2.76680000      -1.98500000       0.11520000
O        3.45420000      -2.19970000      -0.85650000
N        0.87420000      -0.62550000       0.99670000
C        0.16830000      -1.02770000       2.19360000
H        1.36200000       1.85800000      -0.18040000
H       -0.24590000       2.05540000      -0.90610000
H       -0.07090000       2.04460000       0.85680000
H       -0.94890000      -0.15920000      -0.03420000
H        0.15890000      -1.25260000      -1.85350000
H        2.53920000      -0.70550000      -2.03320000
H        0.71810000      -2.60120000       0.09600000
H        3.19900000      -1.98250000       1.13990000
H        0.83000000      -1.60580000       2.84730000
H       -0.15240000      -0.14100000       2.74970000
H       -0.72710000      -1.64350000       1.98240000
