21
Properties=species:S:1:pos:R:3 gdb_117268=T pbc="F F F"
O       -0.42040000       1.58480000      -0.17880000
C       -0.07690000       0.22060000       0.01970000
C       -1.37200000      -0.57650000       0.00920000
C       -1.17050000      -2.06700000       0.21910000
O       -0.08000000      -2.53480000       0.47270000
C       -2.39410000      -2.94130000       0.04400000
C       -2.63080000      -3.47820000      -1.41450000
C       -2.98760000      -4.85890000      -0.80330000
C       -2.31850000      -4.41220000       0.52330000
H        0.39070000       2.10080000      -0.16120000
H        0.59090000      -0.15000000      -0.77170000
H        0.44230000       0.06450000       0.97540000
H       -2.04590000      -0.20280000       0.79240000
H       -1.91020000      -0.41460000      -0.93430000
H       -3.28740000      -2.42200000       0.40430000
H       -3.38800000      -2.96980000      -2.01520000
H       -1.69410000      -3.51110000      -1.97810000
H       -4.06860000      -4.98540000      -0.69620000
H       -2.58350000      -5.74360000      -1.30020000
H       -1.27380000      -4.72350000       0.59180000
H       -2.82700000      -4.65780000       1.45800000
