21
Properties=species:S:1:pos:R:3 gdb_120516=T pbc="F F F"
C       -0.31510000       1.65540000       0.31580000
C        0.00710000       0.17780000       0.07980000
C        0.83190000      -0.44490000       1.21210000
C        1.10120000      -1.92340000       0.99910000
C        1.66610000      -2.73920000       2.18110000
C        0.35780000      -3.56720000       2.06080000
O       -0.12060000      -2.71320000       0.99200000
C        0.49910000      -4.96140000       1.66940000
C        0.62530000      -6.11490000       1.35520000
H        0.59890000       2.25330000       0.40710000
H       -0.90320000       2.07090000      -0.50830000
H       -0.89170000       1.79210000       1.23740000
H       -0.92080000      -0.39480000      -0.02940000
H        0.55160000       0.06550000      -0.86710000
H        1.79730000       0.07290000       1.30610000
H        0.30810000      -0.31400000       2.16850000
H        1.64960000      -2.07570000       0.05880000
H        2.58320000      -3.29470000       1.98870000
H        1.75860000      -2.18430000       3.11650000
H       -0.30320000      -3.49770000       2.93390000
H        0.72940000      -7.13410000       1.07530000
