21
Properties=species:S:1:pos:R:3 gdb_41856=T pbc="F F F"
C       -0.05240000       1.52460000      -0.06250000
O        1.23100000       2.12590000      -0.02880000
C        2.08990000       1.65240000      -1.04790000
C        2.25250000       0.11530000      -0.99190000
C        0.85750000      -0.51650000      -1.15260000
C       -0.00230000      -0.01050000       0.01890000
C        0.57480000      -0.52550000       1.35620000
C        2.08110000      -0.57760000       1.38570000
C        2.84680000      -0.30750000       0.32980000
H       -0.60270000       1.94810000       0.78400000
H       -0.58080000       1.81420000      -0.98890000
H        1.70260000       1.93990000      -2.04170000
H        3.04800000       2.15860000      -0.89630000
H        2.90890000      -0.18420000      -1.81740000
H        0.40940000      -0.21790000      -2.10830000
H        0.92860000      -1.60900000      -1.14660000
H       -1.03340000      -0.37010000      -0.08290000
H        0.21250000       0.09880000       2.18450000
H        0.18190000      -1.53220000       1.56140000
H        2.53660000      -0.87130000       2.32890000
H        3.93000000      -0.35020000       0.41080000
