20
Properties=species:S:1:pos:R:3 gdb_78991=T pbc="F F F"
C        0.01650000       1.54520000      -0.07270000
N       -0.00710000       0.09780000       0.04510000
C       -1.23380000      -0.56350000       0.52860000
C       -1.49970000      -0.16160000       2.01710000
C       -0.05560000      -0.14420000       2.51960000
C       -0.86750000      -1.41570000       2.57030000
C       -0.36060000      -1.72810000       1.12430000
C       -0.11920000      -3.05710000       0.47700000
C        0.66860000      -0.54060000       1.19060000
H        1.03300000       1.87590000      -0.31190000
H       -0.63880000       1.85570000      -0.89370000
H       -0.30870000       2.06580000       0.84380000
H       -2.06870000      -0.67580000      -0.16450000
H       -2.28090000       0.45150000       2.44550000
H        0.27750000       0.48240000       3.33580000
H       -1.14930000      -2.04650000       3.40200000
H       -1.03690000      -3.65580000       0.44380000
H        0.23590000      -2.92270000      -0.55000000
H        0.63440000      -3.63510000       1.02430000
H        1.75560000      -0.62970000       1.16630000
