19
Properties=species:S:1:pos:R:3 gdb_1577=T pbc="F F F"
C       -0.00830000       1.40500000      -0.11810000
O       -0.02670000       0.02330000       0.15110000
C       -1.30730000      -0.59390000       0.04730000
C       -1.72850000      -0.79250000      -1.41150000
C       -1.21380000      -1.92010000       0.80220000
C       -0.91780000      -1.75160000       2.29380000
O       -0.87820000      -2.99210000       2.98540000
H        1.00280000       1.76080000       0.09610000
H       -0.24130000       1.63810000      -1.16730000
H       -0.71820000       1.95370000       0.52100000
H       -2.05170000       0.05080000       0.54840000
H       -1.00340000      -1.42620000      -1.93210000
H       -2.71020000      -1.27350000      -1.46370000
H       -1.79790000       0.15910000      -1.94610000
H       -2.15210000      -2.47350000       0.68560000
H       -0.42210000      -2.52440000       0.33800000
H        0.01290000      -1.18400000       2.42390000
H       -1.72040000      -1.17630000       2.76980000
H       -0.12030000      -3.48490000       2.65530000
