17
Properties=species:S:1:pos:R:3 gdb_35032=T pbc="F F F"
C       -0.03860000      -1.20840000      -0.09440000
C       -0.00070000      -0.00870000      -0.02690000
C        0.01870000       1.43650000       0.05440000
C       -0.28020000       2.06920000       1.44260000
C        0.92320000       1.58000000       2.25620000
O        1.99990000       1.61750000       1.29250000
C        1.42220000       2.10130000       0.08040000
C        1.02560000       3.56620000       0.29770000
O       -0.11090000       3.46420000       1.18590000
H       -0.06360000      -2.26810000      -0.15710000
H       -0.63170000       1.88280000      -0.70330000
H       -1.26300000       1.89770000       1.87820000
H        1.13630000       2.25970000       3.08730000
H        0.80290000       0.55810000       2.63220000
H        2.09900000       1.89770000      -0.74770000
H        1.83470000       4.12370000       0.78070000
H        0.72820000       4.08160000      -0.62420000
