21
Properties=species:S:1:pos:R:3 gdb_40050=T pbc="F F F"
C        0.01400000       1.51000000      -0.00610000
C        1.31890000       0.74710000      -0.02470000
C        0.00670000       0.01070000       0.01500000
C       -0.45090000      -0.82600000       1.23120000
C       -1.19270000      -2.00010000       0.54360000
C       -2.44520000      -1.42660000      -0.14310000
O       -1.92640000      -0.66630000      -1.25120000
C       -0.49660000      -0.79480000      -1.18040000
C       -0.30610000      -2.24030000      -0.69990000
H       -0.25660000       2.03440000       0.90500000
H       -0.30460000       2.00830000      -0.91600000
H        1.89280000       0.73480000      -0.94650000
H        1.92630000       0.74890000       0.87520000
H        0.40130000      -1.19100000       1.81500000
H       -1.10470000      -0.26690000       1.90860000
H       -1.39210000      -2.85770000       1.18740000
H       -3.11070000      -2.21320000      -0.52310000
H       -3.02610000      -0.77120000       0.51800000
H       -0.08180000      -0.50950000      -2.14830000
H        0.72990000      -2.48680000      -0.45420000
H       -0.71140000      -2.97630000      -1.39870000
