18
Properties=species:S:1:pos:R:3 gdb_81858=T pbc="F F F"
C        0.05650000       1.60430000       0.11750000
C        0.08490000       0.10670000       0.04790000
C       -0.94300000      -0.79680000       0.66310000
C        0.49490000      -0.83750000       1.14770000
C        1.40100000      -1.86550000       0.50310000
N        1.00360000      -3.26180000       0.66090000
C        1.32010000      -1.52110000      -0.99670000
O        1.77370000      -2.16860000      -1.89580000
O        0.62870000      -0.37080000      -1.18630000
H        1.06160000       2.02050000      -0.00340000
H       -0.58240000       2.01880000      -0.66860000
H       -0.33900000       1.92750000       1.08430000
H       -1.67540000      -0.34510000       1.32300000
H       -1.30300000      -1.64280000       0.08750000
H        0.73430000      -0.46340000       2.13610000
H        2.44230000      -1.66510000       0.81010000
H        1.47620000      -3.80680000      -0.05620000
H        1.31080000      -3.61630000       1.56060000
