17
Properties=species:S:1:pos:R:3 gdb_65052=T pbc="F F F"
C        0.06960000       0.91140000      -1.25310000
C       -0.00360000      -0.00170000      -0.04720000
C        1.20670000      -0.73410000       0.40910000
N        0.66540000       0.38640000       1.19990000
C       -1.35670000      -0.64350000       0.15840000
C       -1.96360000      -0.77780000       1.49670000
O       -2.41020000       0.22670000       0.58590000
C       -1.73920000      -1.59300000      -0.87630000
N       -2.00570000      -2.34660000      -1.71110000
H        1.07840000       1.31860000      -1.36950000
H       -0.18580000       0.37340000      -2.17170000
H       -0.63260000       1.74390000      -1.14290000
H        1.11370000      -1.70870000       0.87970000
H        2.12380000      -0.58710000      -0.15460000
H        1.21190000       1.23010000       1.04760000
H       -2.66800000      -1.58670000       1.67910000
H       -1.38250000      -0.41670000       2.33990000
