14
Properties=species:S:1:pos:R:3 gdb_78159=T pbc="F F F"
O       -0.02490000       1.31110000      -0.09480000
C       -0.00980000      -0.07140000      -0.00460000
C       -0.49480000      -0.70470000       1.29370000
C       -1.37140000      -0.70520000       0.05230000
C       -1.42280000      -2.13240000      -0.42180000
O       -2.07020000      -2.60160000      -1.32130000
N       -0.55050000      -2.84420000       0.40760000
C       -0.06220000      -2.12550000       1.50480000
O        0.57650000      -2.59090000       2.41390000
H        0.80090000       1.64990000       0.26860000
H        0.77780000      -0.57750000      -0.56250000
H       -0.66500000      -0.06780000       2.15030000
H       -2.24000000      -0.07410000      -0.07390000
H       -0.39730000      -3.83680000       0.30250000
