19
Properties=species:S:1:pos:R:3 gdb_110004=T pbc="F F F"
C        0.19620000       1.38030000       0.08730000
O       -0.02300000      -0.00940000      -0.10750000
C        0.64950000      -0.53000000      -1.23750000
C        1.99440000      -1.21540000      -0.82380000
O        2.61230000      -0.74790000       0.34070000
C        1.25020000      -2.57910000      -0.78970000
C        0.09000000      -1.93840000      -1.61310000
C       -1.31860000      -2.25220000      -1.17870000
O       -2.21480000      -2.53740000      -1.93170000
H        1.25960000       1.60700000       0.23200000
H       -0.17810000       1.96040000      -0.76810000
H       -0.36100000       1.66730000       0.98210000
H        0.67530000       0.21160000      -2.04510000
H        2.73930000      -1.17280000      -1.62290000
H        1.90890000      -0.65040000       0.99530000
H        1.74880000      -3.45040000      -1.21740000
H        0.92760000      -2.82060000       0.22890000
H        0.17450000      -2.11730000      -2.68650000
H       -1.47970000      -2.21300000      -0.07990000
