18
Properties=species:S:1:pos:R:3 gdb_23408=T pbc="F F F"
O       -0.13060000       1.34400000      -0.14700000
N        0.00010000      -0.05920000      -0.10660000
C       -1.13220000      -0.62900000       0.06570000
C       -2.46770000      -0.04830000       0.23670000
C       -3.37180000      -1.01160000       0.47340000
C       -2.76690000      -2.38690000       0.49510000
C       -2.96290000      -3.24040000      -0.80080000
C       -1.53650000      -2.83810000      -1.26690000
C       -1.27390000      -2.13150000       0.10680000
H        0.78170000       1.62590000      -0.26950000
H       -2.65730000       1.01390000       0.17490000
H       -4.43340000      -0.84160000       0.62220000
H       -2.97130000      -2.91590000       1.43110000
H       -3.06490000      -4.30800000      -0.59080000
H       -3.78890000      -2.93610000      -1.44810000
H       -0.86500000      -3.67150000      -1.48270000
H       -1.51270000      -2.15080000      -2.11490000
H       -0.50890000      -2.61420000       0.71480000
