21
Properties=species:S:1:pos:R:3 gdb_38715=T pbc="F F F"
C       -0.03170000       1.47150000       0.00840000
C        1.36930000       0.84490000       0.02630000
C        2.20650000       0.27960000       1.18250000
C        1.56450000      -1.12620000       1.37690000
C        0.07710000      -0.74750000       1.30540000
C        0.12620000      -0.00920000      -0.03530000
O       -0.02380000      -0.88250000      -1.11660000
C        1.18710000      -1.66040000      -1.18230000
C        1.76670000      -2.11650000       0.19190000
H       -0.48140000       1.90000000       0.90010000
H       -0.25540000       2.01160000      -0.90630000
H        1.89660000       1.01140000      -0.90650000
H        3.26570000       0.23840000       0.91000000
H        2.13520000       0.85450000       2.11420000
H        1.87900000      -1.60890000       2.30900000
H       -0.60500000      -1.59950000       1.26210000
H       -0.22250000      -0.09730000       2.13350000
H        0.95230000      -2.53380000      -1.79730000
H        1.94820000      -1.07480000      -1.71550000
H        2.82840000      -2.34670000       0.04110000
H        1.28200000      -3.05460000       0.48680000
