17
Properties=species:S:1:pos:R:3 gdb_34381=T pbc="F F F"
C       -0.05940000      -1.22410000      -0.13390000
C       -0.04210000      -0.02450000      -0.04870000
C       -0.02940000       1.41950000       0.04800000
C       -0.25640000       2.22700000      -1.26690000
O        0.91000000       3.03120000      -1.02140000
C        1.32890000       2.20570000       0.08520000
C        1.38920000       2.97670000       1.40760000
C       -0.00920000       2.81940000       1.95920000
C       -0.76160000       1.98100000       1.24860000
H       -0.07150000      -2.28340000      -0.20680000
H       -0.15760000       1.62000000      -2.17510000
H       -1.17330000       2.82460000      -1.31380000
H        2.23310000       1.63820000      -0.15460000
H        2.14540000       2.57220000       2.09310000
H        1.65640000       4.02180000       1.21230000
H       -0.34410000       3.34080000       2.84950000
H       -1.78690000       1.70500000       1.46470000
