18
Properties=species:S:1:pos:R:3 gdb_126903=T pbc="F F F"
C        0.01660000       1.48270000      -0.13360000
C       -0.01090000      -0.03400000       0.01560000
N        0.74330000      -0.43830000       1.20340000
C        0.86810000      -1.79730000       1.46110000
C        1.49110000      -2.44550000       2.49280000
C        2.21590000      -1.97750000       3.70020000
O        1.36710000      -3.76390000       2.26770000
N        0.67370000      -3.92110000       1.05250000
N        0.38840000      -2.76750000       0.61320000
H        1.04430000       1.84960000      -0.20900000
H       -0.52880000       1.78680000      -1.03110000
H       -0.45840000       1.97570000       0.72320000
H       -1.04990000      -0.39680000       0.04570000
H        0.45540000      -0.51120000      -0.85140000
H        0.47550000       0.09130000       2.02270000
H        1.60860000      -2.07290000       4.60820000
H        3.13090000      -2.55740000       3.85240000
H        2.48970000      -0.92580000       3.58050000
