19
Properties=species:S:1:pos:R:3 gdb_66611=T pbc="F F F"
C        0.02190000       1.46330000       0.00890000
C        0.00980000      -0.04030000       0.00520000
C        0.13140000      -0.88500000       1.26800000
C        1.25030000      -0.87580000       0.25140000
C        0.73520000      -2.18090000      -0.37640000
O        0.08930000      -1.80210000      -1.58480000
C       -0.84820000      -0.87670000      -1.00540000
C       -1.65870000      -1.81340000      -0.08660000
C       -0.42400000      -2.21920000       0.73040000
H        0.69240000       1.84990000       0.78360000
H        0.36270000       1.86180000      -0.95350000
H       -0.97570000       1.87300000       0.20530000
H        0.09510000      -0.49310000       2.27680000
H        2.25880000      -0.48330000       0.29400000
H        1.38850000      -3.03750000      -0.52380000
H       -1.36510000      -0.32290000      -1.78740000
H       -2.40350000      -1.29240000       0.52240000
H       -2.12710000      -2.62550000      -0.64830000
H       -0.47500000      -3.08250000       1.38970000
