18
Properties=species:S:1:pos:R:3 gdb_108777=T pbc="F F F"
C       -0.10500000       1.44430000       0.12040000
N       -0.04250000       0.00730000      -0.03520000
C        0.62450000      -0.60980000      -1.04400000
C        1.27000000       0.03250000      -2.05170000
C        1.83750000      -0.67550000      -3.19380000
O        2.21560000      -0.14410000      -4.20870000
O        1.90960000      -2.04960000      -3.11230000
C        1.79700000      -2.63750000      -1.82120000
C        0.58450000      -2.11670000      -1.05780000
H        0.88980000       1.88510000       0.26900000
H       -0.55350000       1.91090000      -0.76420000
H       -0.72430000       1.68260000       0.98680000
H       -0.37340000      -0.56240000       0.72350000
H        1.30680000       1.11090000      -2.12410000
H        1.72880000      -3.71540000      -1.98650000
H        2.71020000      -2.43440000      -1.24460000
H        0.59360000      -2.51890000      -0.03730000
H       -0.34410000      -2.45680000      -1.53360000
