18
Properties=species:S:1:pos:R:3 gdb_71858=T pbc="F F F"
C       -0.05900000       1.50830000       0.04980000
C        0.06170000       0.01590000      -0.05080000
C       -0.10690000      -0.79360000      -1.33110000
C       -0.65140000      -1.92300000      -0.42020000
C        0.42690000      -2.92740000      -0.04290000
C        1.42280000      -2.05490000       0.72980000
O        2.54710000      -2.33920000       1.05630000
C        0.68720000      -0.79150000       1.05480000
N       -0.76670000      -0.93520000       0.75940000
H        0.83010000       1.99750000      -0.36310000
H       -0.93170000       1.86210000      -0.50980000
H       -0.17100000       1.82340000       1.09080000
H       -0.88990000      -0.36010000      -1.95810000
H        0.77230000      -1.00050000      -1.94940000
H       -1.61590000      -2.35090000      -0.68620000
H        0.03700000      -3.68990000       0.64300000
H        0.89840000      -3.43550000      -0.88790000
H        0.94570000      -0.26290000       1.96540000
