17
Properties=species:S:1:pos:R:3 gdb_18711=T pbc="F F F"
C        0.11440000       1.53580000      -0.05900000
C       -0.01130000       0.02420000       0.06130000
O        0.42730000      -0.52640000      -1.20390000
C        0.86770000      -1.80830000      -1.23000000
N        1.29040000      -2.52440000      -0.27640000
C        1.35250000      -1.92710000       1.02320000
C        2.23660000      -0.70860000       1.21700000
C        0.73730000      -0.56730000       1.23720000
H        1.16390000       1.82560000      -0.16120000
H       -0.43530000       1.89840000      -0.93180000
H       -0.29250000       2.01810000       0.83510000
H       -1.07150000      -0.24780000       0.16680000
H        0.84710000      -2.19170000      -2.24830000
H        1.32040000      -2.65210000       1.82900000
H        2.77330000      -0.60660000       2.15360000
H        2.77840000      -0.36000000       0.34390000
H        0.26640000      -0.36590000       2.19540000
