22
Properties=species:S:1:pos:R:3 gdb_109791=T pbc="F F F"
C       -1.36370000       2.52860000      -0.42380000
C       -1.24900000       1.32120000      -1.35260000
N       -1.86480000       0.14950000      -0.73350000
C       -1.56900000      -1.20310000      -1.20500000
C       -0.63730000      -1.50740000      -2.35960000
C       -1.09420000      -0.74160000       0.14050000
C        0.35390000      -0.53760000       0.45650000
C        0.77900000      -0.14880000       1.81010000
O        0.91270000      -1.49720000       1.36320000
H       -0.97100000       3.42780000      -0.90860000
H       -2.40830000       2.70340000      -0.15240000
H       -0.79760000       2.36740000       0.49930000
H       -1.80120000       1.51590000      -2.27990000
H       -0.19660000       1.18150000      -1.64170000
H       -2.45380000      -1.84050000      -1.20570000
H        0.28260000      -0.92030000      -2.34790000
H       -0.35460000      -2.56500000      -2.33730000
H       -1.13850000      -1.31970000      -3.31550000
H       -1.64560000      -1.07880000       1.01860000
H        1.01890000      -0.27990000      -0.36480000
H        1.71260000       0.39460000       1.95050000
H        0.02470000       0.01540000       2.57890000
