18
Properties=species:S:1:pos:R:3 gdb_106900=T pbc="F F F"
C       -0.07030000       1.39200000      -0.47950000
N       -0.37880000       0.01490000      -0.14920000
C       -0.05900000      -1.10990000      -0.92540000
O       -0.00630000      -1.25550000      -2.11540000
C        0.21150000      -1.94750000       0.31710000
C        1.30050000      -1.22370000       1.12080000
C       -0.10280000      -0.69430000       1.10910000
C       -1.01080000      -0.51570000       2.29870000
O       -0.71180000      -1.41980000       3.34780000
H        0.92550000       1.69330000      -0.12490000
H       -0.09570000       1.48300000      -1.56810000
H       -0.81360000       2.07490000      -0.05670000
H       -0.07240000      -2.97100000       0.51410000
H        1.60990000      -1.75830000       2.01430000
H        2.09750000      -0.69460000       0.60650000
H       -0.97420000       0.52930000       2.64480000
H       -2.04320000      -0.71660000       1.99300000
H        0.07380000      -1.09930000       3.80140000
