14
Properties=species:S:1:pos:R:3 gdb_127528=T pbc="F F F"
C        0.16010000       1.40360000      -0.02650000
N        0.10820000      -0.03850000      -0.00200000
N        0.15880000      -0.78210000      -1.14560000
C        0.08910000      -2.00640000      -0.73990000
O       -0.00650000      -2.12400000       0.62770000
C        0.00550000      -0.82850000       1.12350000
N       -0.06170000      -0.44650000       2.32630000
C        0.10140000      -3.16940000      -1.52800000
C        0.11010000      -4.17880000      -2.18210000
H        1.09640000       1.74750000      -0.47550000
H       -0.68170000       1.80950000      -0.59500000
H        0.10230000       1.74020000       1.00900000
H       -0.13180000      -1.23120000       2.96660000
H        0.11840000      -5.06610000      -2.76660000
