18
Properties=species:S:1:pos:R:3 gdb_100169=T pbc="F F F"
C       -0.04490000       1.51140000      -0.01470000
C        0.03100000      -0.04050000       0.00490000
C        0.75940000      -0.52360000       1.26880000
O        0.02790000      -0.04890000       2.39360000
C       -1.40570000      -0.56050000       0.01510000
O       -2.14880000      -0.55860000      -0.94030000
C        0.83730000      -0.51270000      -1.23070000
N        0.19940000      -0.38960000      -2.42300000
O        1.98520000      -0.90220000      -1.11560000
H        0.96700000       1.92360000      -0.07290000
H       -0.61560000       1.85980000      -0.87750000
H       -0.51410000       1.87560000       0.90140000
H        0.81730000      -1.62180000       1.26380000
H        1.78620000      -0.14380000       1.25520000
H        0.47380000      -0.34960000       3.19020000
H       -1.75590000      -0.92220000       1.00040000
H       -0.80860000      -0.30610000      -2.42820000
H        0.67030000      -0.77160000      -3.22830000
