19
Properties=species:S:1:pos:R:3 gdb_40103=T pbc="F F F"
C       -0.59120000       1.33300000       0.19520000
O        0.79660000       1.00410000       0.04830000
C       -0.14370000      -0.05550000       0.05780000
C       -0.11830000      -1.19110000       1.08520000
C       -0.41070000      -2.19600000      -0.07280000
O       -1.72850000      -2.70960000      -0.13070000
C       -2.56670000      -1.75160000      -0.77130000
C       -1.67890000      -1.05850000      -1.81740000
C       -0.31640000      -1.03230000      -1.11860000
H       -0.88130000       1.71140000       1.17510000
H       -1.03810000       1.85190000      -0.65230000
H        0.86920000      -1.32240000       1.53620000
H       -0.87390000      -1.16480000       1.87430000
H        0.28000000      -3.03670000      -0.15470000
H       -3.41980000      -2.28670000      -1.19620000
H       -2.95100000      -1.01940000      -0.04340000
H       -1.62060000      -1.66520000      -2.72650000
H       -2.04870000      -0.06700000      -2.09210000
H        0.53650000      -1.04310000      -1.79890000
