16
Properties=species:S:1:pos:R:3 gdb_57743=T pbc="F F F"
C       -0.00470000       1.55650000      -0.00450000
C       -0.01100000       0.01330000       0.03890000
C        0.77290000      -0.52640000       1.25460000
C       -1.37370000      -0.50210000       0.02790000
C       -2.51010000      -0.92810000       0.02550000
C       -3.77540000      -1.39980000       0.02700000
C       -4.91520000      -1.82460000       0.02870000
C       -6.18840000      -2.29890000       0.03090000
N       -7.27910000      -2.70520000       0.03290000
H        1.02640000       1.91950000      -0.04660000
H       -0.54040000       1.93000000      -0.88050000
H       -0.47980000       1.96930000       0.89000000
H        0.48170000      -0.35380000      -0.87270000
H        0.32240000      -0.17940000       2.18880000
H        0.78450000      -1.61900000       1.26470000
H        1.80580000      -0.16810000       1.21530000
