16
Properties=species:S:1:pos:R:3 gdb_45005=T pbc="F F F"
N       -0.12390000       1.35240000      -0.11360000
C       -0.02030000       0.09790000       0.06080000
C       -1.24600000      -0.79560000       0.02880000
C       -1.12800000      -1.91130000       1.05200000
C       -0.83540000      -3.32430000       0.64520000
N        0.20150000      -2.48150000       1.22290000
C        1.27740000      -1.98430000       0.48030000
O        2.25260000      -2.62840000       0.17740000
N        1.17350000      -0.61430000       0.21550000
H        0.78790000       1.81480000      -0.09900000
H       -2.12830000      -0.17890000       0.19710000
H       -1.32060000      -1.21100000      -0.98380000
H       -1.65320000      -1.74960000       1.99040000
H       -1.16350000      -4.15100000       1.26790000
H       -0.77160000      -3.54330000      -0.41790000
H        2.03470000      -0.18490000      -0.09260000
