19
Properties=species:S:1:pos:R:3 gdb_56915=T pbc="F F F"
C        0.06930000       1.47110000      -0.34400000
C       -0.09080000       0.03280000       0.09320000
C       -1.30740000      -0.66080000      -0.48950000
O        1.10400000      -0.78550000       0.07670000
C        0.47820000      -0.54310000       1.33130000
C        1.32970000       0.06020000       2.45110000
N        2.29460000      -0.90690000       2.99710000
C        2.07830000       1.27580000       2.09810000
N        2.68090000       2.23120000       1.85800000
H        1.01330000       1.90520000      -0.02310000
H        0.02170000       1.52250000      -1.43710000
H       -0.75100000       2.08090000       0.04990000
H       -1.26280000      -0.64040000      -1.58340000
H       -1.36050000      -1.70400000      -0.16880000
H       -2.22720000      -0.15150000      -0.18290000
H       -0.05470000      -1.41220000       1.73310000
H        0.64880000       0.33670000       3.26730000
H        1.78840000      -1.70560000       3.36950000
H        2.87280000      -1.25540000       2.23620000
