18
Properties=species:S:1:pos:R:3 gdb_73414=T pbc="F F F"
C        0.00620000       1.46130000      -0.01780000
C       -0.02940000      -0.04300000       0.10010000
C       -1.40790000      -0.70390000       0.02550000
O       -1.24360000      -2.00110000       0.62000000
C        0.13610000      -2.14100000       0.87660000
C        1.05090000      -2.09870000      -0.35400000
C        1.88240000      -1.01150000       0.21720000
C        0.73800000      -0.75350000       1.24300000
N        0.93460000      -0.69500000      -0.88710000
H        1.03430000       1.83050000       0.03980000
H       -0.40900000       1.78110000      -0.97940000
H       -0.57580000       1.92890000       0.78310000
H       -2.17250000      -0.15090000       0.58560000
H       -1.73450000      -0.79790000      -1.01870000
H        0.30380000      -2.97060000       1.56290000
H        1.29590000      -2.87590000      -1.06610000
H        2.94350000      -0.81120000       0.18780000
H        0.78900000      -0.38940000       2.26650000
