19
Properties=species:S:1:pos:R:3 gdb_95870=T pbc="F F F"
O       -0.09090000       1.47270000       0.07110000
C        0.03400000       0.05950000       0.01970000
C        0.76440000      -0.49560000       1.25770000
N        0.75690000      -1.95450000       1.35310000
C       -0.58240000      -2.51160000       1.27110000
C       -1.38660000      -2.04760000       0.02020000
C       -1.38600000      -0.50280000      -0.05330000
C       -0.81240000      -2.64390000      -1.19000000
N       -0.32940000      -3.12320000      -2.12510000
H        0.79250000       1.85400000       0.04170000
H        0.58290000      -0.24950000      -0.88520000
H        1.80430000      -0.14850000       1.27200000
H        0.27530000      -0.08280000       2.15070000
H        1.34570000      -2.36060000       0.63230000
H       -0.51990000      -3.60290000       1.29560000
H       -1.14700000      -2.19220000       2.15640000
H       -2.41990000      -2.40560000       0.10310000
H       -1.95500000      -0.11870000       0.80160000
H       -1.88270000      -0.15100000      -0.96130000
