13
Properties=species:S:1:pos:R:3 gdb_21709=T pbc="F F F"
N       -0.04740000       1.33670000       0.14450000
C        0.04890000      -0.00880000      -0.02030000
N        1.16050000      -0.62830000       0.12840000
C        1.16170000      -2.01000000       0.05270000
N        0.08240000      -2.80490000       0.13960000
N        0.59650000      -4.02470000       0.01460000
N        1.91070000      -4.10870000      -0.13260000
C        2.29610000      -2.83390000      -0.11040000
H        0.81330000       1.85480000       0.23380000
H       -0.84010000       1.82430000      -0.23480000
H       -0.89780000      -0.50670000      -0.25160000
H        0.01900000      -4.84730000       0.06880000
H        3.33140000      -2.55350000      -0.21280000
