20
Properties=species:S:1:pos:R:3 gdb_32216=T pbc="F F F"
C        0.07700000       1.59800000      -0.05290000
C        0.01190000       0.06140000       0.00600000
C        0.68660000      -0.48650000       1.24370000
N        2.01540000      -0.62700000       1.15070000
C        2.69000000      -1.07760000       2.20900000
C        2.08250000      -1.41490000       3.41190000
C        0.70390000      -1.26760000       3.50670000
C       -0.02800000      -0.79490000       2.41830000
C       -1.52570000      -0.63190000       2.51500000
H        1.11820000       1.93140000      -0.02580000
H       -0.38170000       1.97340000      -0.97280000
H       -0.44430000       2.05520000       0.79500000
H       -1.03040000      -0.26730000      -0.04630000
H        0.53120000      -0.35080000      -0.86410000
H        3.76640000      -1.17520000       2.08550000
H        2.66970000      -1.78110000       4.24660000
H        0.18790000      -1.52020000       4.42890000
H       -1.84260000       0.39100000       2.28540000
H       -2.05280000      -1.29270000       1.81710000
H       -1.87630000      -0.86980000       3.52290000
