17
Properties=species:S:1:pos:R:3 gdb_94495=T pbc="F F F"
C        0.00510000       1.46790000      -0.03760000
N       -0.04350000       0.02800000       0.09160000
C       -1.30100000      -0.62090000       0.51320000
C       -0.46930000      -1.64600000       1.31790000
C        0.68430000      -0.60100000       1.21520000
C        2.03360000      -1.05260000       0.92940000
C        3.15750000      -1.43380000       0.69890000
C        4.42540000      -1.86540000       0.43680000
N        5.50550000      -2.23230000       0.21580000
H        1.02870000       1.78360000      -0.26260000
H       -0.63350000       1.78160000      -0.86940000
H       -0.33020000       1.99730000       0.87410000
H       -1.91610000       0.01600000       1.17000000
H       -1.92250000      -0.99020000      -0.30770000
H       -0.80330000      -1.89860000       2.32310000
H       -0.24880000      -2.55280000       0.75500000
H        0.70580000       0.03660000       2.11730000
