16
Properties=species:S:1:pos:R:3 gdb_11004=T pbc="F F F"
C       -0.05440000       1.51420000      -0.01290000
C        0.02920000       0.00900000       0.01680000
C       -0.79680000      -0.80870000       0.96130000
C        0.71850000      -0.78240000       1.10640000
C        1.41360000      -1.92260000       0.43720000
O        2.15810000      -2.73280000       0.90600000
O        1.06310000      -1.93740000      -0.88950000
C        0.40090000      -0.72260000      -1.26930000
H        0.88100000       1.95790000      -0.37100000
H       -0.86050000       1.85090000      -0.67500000
H       -0.25850000       1.91580000       0.98380000
H       -1.35200000      -0.27600000       1.72560000
H       -1.26650000      -1.72410000       0.61460000
H        1.17470000      -0.35270000       1.98790000
H       -0.46600000      -0.98590000      -1.88370000
H        1.09170000      -0.12450000      -1.87640000
