17
Properties=species:S:1:pos:R:3 gdb_56858=T pbc="F F F"
O        0.64540000       1.06400000      -0.55670000
C       -0.02490000      -0.08150000      -0.06270000
C       -0.05110000      -1.16240000      -1.07270000
N       -0.04040000      -2.00060000      -1.86790000
C        0.60080000      -0.57860000       1.23370000
C        0.25390000      -0.07120000       2.57480000
C       -1.23200000       0.24430000       2.72650000
C       -1.49340000      -1.20770000       2.25250000
N       -0.01740000      -1.52460000       2.17930000
H        1.55280000       0.81750000      -0.77130000
H       -1.05500000       0.24330000       0.10020000
H        1.65210000      -0.83140000       1.09760000
H        1.02350000       0.18700000       3.29550000
H       -1.52310000       0.40170000       3.76580000
H       -1.62540000       1.07350000       2.13050000
H       -1.94790000      -1.83800000       3.01780000
H       -2.03630000      -1.36050000       1.31490000
