13
Properties=species:S:1:pos:R:3 gdb_3192=T pbc="F F F"
O        0.00320000       1.44620000       0.00980000
C        1.43390000       1.57140000      -0.00360000
C        1.79230000       0.71250000       1.23820000
C        0.89460000      -0.26690000       1.24220000
C        0.00300000       0.01000000       0.00250000
C        0.87020000      -0.25430000      -1.25700000
C        1.76770000       0.72530000      -1.26100000
H        1.74470000       2.61480000      -0.00140000
H        2.63730000       0.87980000       1.89020000
H        0.80420000      -1.12040000       1.89820000
H       -1.00930000      -0.39050000       0.01040000
H        0.76680000      -1.10120000      -1.91970000
H        2.59970000       0.89920000      -1.92770000
