15
Properties=species:S:1:pos:R:3 gdb_12941=T pbc="F F F"
C        0.05840000       1.55930000       0.04960000
C        0.09680000       0.04900000       0.10540000
C        1.31200000      -0.80410000      -0.16290000
N        2.54080000      -0.20660000       0.37190000
C        2.02230000      -0.13380000       1.68070000
O        2.47010000       0.31170000       2.69800000
C        0.71660000      -0.80120000       1.23130000
O        0.04420000      -1.81880000       1.86270000
H        0.99920000       2.00560000       0.38280000
H       -0.13420000       1.90350000      -0.97230000
H       -0.73720000       1.95410000       0.68950000
H       -0.81660000      -0.43800000      -0.23680000
H        1.36020000      -1.62360000      -0.86760000
H        3.02450000       0.57030000      -0.06440000
H       -0.55910000      -1.43260000       2.50720000
