21
Properties=species:S:1:pos:R:3 gdb_94273=T pbc="F F F"
C       -0.28060000       1.47420000      -0.01680000
C        0.09940000       0.00400000      -0.05700000
O        1.31440000      -0.20990000      -0.82020000
C        1.99610000      -0.80920000       0.29900000
C        0.75330000      -0.64130000       1.18630000
C        0.73880000      -0.08400000       2.63530000
C       -0.70070000      -0.66640000       2.76400000
C        0.13280000      -1.77030000       2.05070000
C        1.26080000      -1.48180000       3.08480000
H        0.50980000       2.07030000       0.44930000
H       -0.43020000       1.84420000      -1.03610000
H       -1.21030000       1.62850000       0.54070000
H       -0.72570000      -0.58830000      -0.47960000
H        2.29810000      -1.84440000       0.09030000
H        2.88600000      -0.23580000       0.59230000
H        1.09270000       0.89170000       2.97200000
H       -1.04070000      -0.89580000       3.77760000
H       -1.48910000      -0.18410000       2.18200000
H       -0.21520000      -2.74440000       1.70240000
H        2.28100000      -1.74850000       2.79650000
H        1.05400000      -1.76560000       4.12030000
