25
Properties=species:S:1:pos:R:3 gdb_104330=T pbc="F F F"
C        0.71420000      -0.61020000       1.32810000
C        0.12190000       0.00380000       0.05370000
C        0.84140000      -0.36740000      -1.26310000
C        2.28320000       0.18840000      -1.27760000
C        0.83300000      -1.90380000      -1.52590000
C        0.61760000      -2.07910000      -3.04740000
C       -0.01500000      -0.76890000      -3.44050000
C        0.08650000       0.16170000      -2.48990000
C       -0.39900000       1.57670000      -2.58450000
H        0.73840000      -1.70350000       1.27620000
H        1.73520000      -0.26360000       1.51440000
H        0.11290000      -0.33580000       2.20070000
H       -0.92810000      -0.30440000      -0.03420000
H        0.11090000       1.09620000       0.16050000
H        2.87690000      -0.21480000      -0.45140000
H        2.79010000      -0.07430000      -2.21150000
H        2.29260000       1.28050000      -1.19010000
H        1.74010000      -2.39610000      -1.16370000
H       -0.01250000      -2.35290000      -0.99300000
H        1.56520000      -2.23480000      -3.58340000
H       -0.00800000      -2.94820000      -3.28180000
H       -0.46540000      -0.60310000      -4.41450000
H       -0.84130000       1.77760000      -3.56420000
H       -1.15580000       1.79840000      -1.82240000
H        0.41600000       2.29520000      -2.43030000
