21
Properties=species:S:1:pos:R:3 gdb_32971=T pbc="F F F"
C       -0.07850000       1.58650000       0.09450000
C       -0.09100000       0.05620000       0.09780000
C        0.81260000      -0.54360000       1.19510000
C        0.85470000      -2.03750000       1.21700000
C        1.76320000      -2.92970000       0.70140000
N        1.38160000      -4.22860000       0.93860000
C        0.25020000      -4.12950000       1.59450000
N       -0.12570000      -2.83060000       1.79460000
C       -1.30610000      -2.38980000       2.50750000
H        0.93330000       1.97330000      -0.07100000
H       -0.72120000       1.98800000      -0.69480000
H       -0.43270000       1.98990000       1.05000000
H       -1.11950000      -0.30330000       0.22820000
H        0.24070000      -0.32590000      -0.87460000
H        1.83630000      -0.18200000       1.04470000
H        0.49840000      -0.15230000       2.17290000
H        2.67800000      -2.69800000       0.17530000
H       -0.34930000      -4.95150000       1.95930000
H       -1.04040000      -1.72520000       3.33550000
H       -2.00170000      -1.86270000       1.84690000
H       -1.81480000      -3.26390000       2.91860000
