19
Properties=species:S:1:pos:R:3 gdb_84762=T pbc="F F F"
C        0.30900000       1.36080000      -0.08000000
C       -0.01780000      -0.14710000      -0.03370000
C        0.65950000      -0.87090000      -1.24780000
C        1.93310000      -1.43090000      -0.66870000
C        1.93690000      -1.40920000       0.66150000
C        0.66890000      -0.82190000       1.23070000
O        0.86230000       0.03470000       2.34030000
C       -1.46440000      -0.33550000      -0.01780000
C       -2.65670000      -0.49270000      -0.00080000
H        1.39180000       1.51650000      -0.14770000
H       -0.15370000       1.81630000      -0.95900000
H       -0.06700000       1.86640000       0.81120000
H        0.01810000      -1.67490000      -1.62800000
H        0.82950000      -0.18550000      -2.08590000
H        2.72080000      -1.84000000      -1.29220000
H        2.71800000      -1.79180000       1.30920000
H        0.01040000      -1.61040000       1.61250000
H        1.56720000       0.65260000       2.11870000
H       -3.70910000      -0.63180000       0.01790000
