21
Properties=species:S:1:pos:R:3 gdb_61243=T pbc="F F F"
C       -0.71380000       1.37550000       0.48880000
C       -0.24700000      -0.04570000       0.26490000
C        1.09070000      -0.31040000      -0.38640000
C        0.88110000      -0.65610000       1.06650000
N        1.55170000       0.13550000       2.06260000
C        0.88190000       0.07930000       3.35890000
C        2.96580000      -0.20900000       2.15360000
C        3.72530000       0.77780000       2.93190000
N        4.32960000       1.54400000       3.55010000
H        0.10690000       2.00330000       0.84400000
H       -1.09880000       1.80660000      -0.44140000
H       -1.51890000       1.42040000       1.23060000
H       -1.03740000      -0.74510000       0.00480000
H        1.18620000      -1.11720000      -1.10420000
H        1.70640000       0.55900000      -0.59480000
H        0.77980000      -1.72200000       1.30150000
H        0.87400000      -0.93880000       3.78990000
H        1.38220000       0.74680000       4.06570000
H       -0.15210000       0.41060000       3.24430000
H        3.14270000      -1.20400000       2.60600000
H        3.38330000      -0.24210000       1.14250000
