17
Properties=species:S:1:pos:R:3 gdb_73340=T pbc="F F F"
C       -0.12150000       1.50500000       0.00350000
C       -0.00500000       0.00570000       0.05430000
O       -1.29490000      -0.59930000      -0.02300000
C       -1.14760000      -1.98020000       0.30660000
C        0.22860000      -2.09620000       0.95410000
C        1.44220000      -1.65620000       0.12790000
C        0.76010000      -0.73650000       1.18910000
C        1.00690000      -0.68620000      -0.92170000
O        1.43000000      -0.38790000      -2.00420000
H        0.86070000       1.97200000       0.11370000
H       -0.53760000       1.81020000      -0.95990000
H       -0.78040000       1.86410000       0.79930000
H       -1.94560000      -2.25940000       1.00430000
H       -1.23540000      -2.60400000      -0.59260000
H        0.42080000      -2.89160000       1.66450000
H        2.38490000      -2.18670000       0.18240000
H        1.19250000      -0.32690000       2.09030000
