21
Properties=species:S:1:pos:R:3 gdb_80975=T pbc="F F F"
C       -0.18050000       1.51150000       0.05640000
C        0.03090000       0.00390000       0.01770000
C        0.86070000      -0.62750000      -1.17140000
C        2.15050000      -0.20460000      -0.39150000
C        1.23410000      -0.60370000       0.82110000
O        1.44480000      -0.17510000       2.12900000
C        1.02910000      -2.10020000       0.51920000
C        0.78170000      -2.11930000      -0.79540000
C        0.47440000      -3.23330000      -1.73500000
H        0.72080000       2.08560000      -0.17120000
H       -0.95320000       1.80480000      -0.66300000
H       -0.52120000       1.81460000       1.05190000
H       -0.91770000      -0.50680000       0.20930000
H        0.69140000      -0.34030000      -2.20890000
H        3.04890000      -0.80370000      -0.55900000
H        2.38120000       0.86160000      -0.44210000
H        2.21960000      -0.62870000       2.47760000
H        1.05400000      -2.90510000       1.24200000
H        0.46830000      -4.19900000      -1.22120000
H       -0.50530000      -3.09600000      -2.21090000
H        1.20900000      -3.28590000      -2.54910000
