20
Properties=species:S:1:pos:R:3 gdb_82239=T pbc="F F F"
C        0.02910000       1.59800000      -0.10580000
C        0.03160000       0.06860000      -0.02630000
C        0.66630000      -0.61710000      -1.23470000
N        2.12300000      -0.42310000      -1.30390000
C        1.58570000      -1.70320000      -0.79360000
C        1.58660000      -1.76820000       0.72690000
O        2.78370000      -1.28120000       1.36380000
C        2.15120000      -0.01800000       1.67560000
C        0.77110000      -0.53440000       1.19350000
H        1.04340000       1.98040000      -0.24650000
H       -0.57920000       1.94470000      -0.94790000
H       -0.38390000       2.04210000       0.80590000
H       -1.01010000      -0.27640000       0.02400000
H        0.10090000      -0.69030000      -2.16000000
H        2.44750000      -0.55340000      -2.25820000
H        1.73560000      -2.60290000      -1.38160000
H        1.30760000      -2.76360000       1.09040000
H        2.22110000       0.20950000       2.74590000
H        2.58170000       0.80150000       1.09320000
H        0.08870000      -0.71650000       2.02530000
