16
Properties=species:S:1:pos:R:3 gdb_47230=T pbc="F F F"
O       -0.00330000       0.05930000       0.57300000
C        0.02980000       1.17290000       0.09610000
C       -1.32040000       1.82420000      -0.22560000
O       -1.34010000       3.15820000      -0.73340000
C       -0.74870000       3.39150000      -1.94700000
N        0.46320000       3.25620000      -2.26180000
C        1.48240000       2.85220000      -1.35540000
C        1.54370000       3.33190000       0.06520000
C        1.31170000       1.85070000      -0.19820000
H       -1.83430000       1.14710000      -0.92070000
H       -1.90340000       1.84920000       0.69810000
H       -1.45300000       3.79840000      -2.67220000
H        2.43730000       2.74490000      -1.85820000
H        2.51140000       3.60500000       0.46970000
H        0.70990000       3.91350000       0.43470000
H        2.15430000       1.18990000      -0.02660000
