18
Properties=species:S:1:pos:R:3 gdb_83209=T pbc="F F F"
C       -0.22050000       1.53870000       0.01580000
C        0.02180000       0.04230000       0.03670000
C        1.35690000      -0.61340000      -0.23200000
C        2.61030000       0.22090000      -0.05070000
O        2.50470000       0.84560000       1.23420000
C        1.66550000       0.05160000       2.06540000
C        0.99230000       0.93030000       3.03620000
N        0.44890000       1.57810000       3.82290000
C        0.72650000      -0.71370000       1.14090000
H        0.62930000       2.10440000       0.40030000
H       -0.41710000       1.87260000      -1.00870000
H       -1.09450000       1.79450000       0.62260000
H       -0.81080000      -0.52720000      -0.37040000
H        1.41470000      -1.47350000      -0.88910000
H        3.50220000      -0.42130000      -0.09580000
H        2.72890000       1.02770000      -0.78110000
H        2.26240000      -0.67220000       2.64420000
H        0.30590000      -1.63620000       1.52220000
