17
Properties=species:S:1:pos:R:3 gdb_107998=T pbc="F F F"
O        0.00560000       1.42840000      -0.11930000
C        0.03760000       0.01600000      -0.03630000
C       -1.34670000      -0.53950000       0.10200000
O       -2.30120000      -0.19130000      -0.96870000
C       -3.08540000      -1.00910000      -0.03920000
C       -1.89960000      -2.00200000       0.17220000
C       -1.91320000      -2.40410000       1.63750000
O       -2.29300000      -1.15980000       2.27140000
C       -2.44670000      -0.28970000       1.18200000
H       -0.65770000       1.64920000      -0.78390000
H        0.52640000      -0.43400000      -0.91560000
H        0.63110000      -0.24360000       0.84700000
H       -4.12630000      -1.21240000      -0.28700000
H       -1.64430000      -2.72230000      -0.60280000
H       -2.65370000      -3.17870000       1.86940000
H       -0.93630000      -2.72860000       2.01420000
H       -2.73750000       0.71410000       1.48120000
