20
Properties=species:S:1:pos:R:3 gdb_6437=T pbc="F F F"
C        0.00810000       1.63490000       0.02920000
C        0.04740000       0.11550000       0.01800000
C        1.07090000      -0.60280000      -0.90170000
C        1.32780000      -1.65580000       0.23540000
C        2.78540000      -2.04340000       0.50270000
C        0.67340000      -0.62890000       1.22780000
C        0.49950000      -2.84290000       0.06630000
C       -0.17900000      -3.82680000      -0.07280000
H        1.00320000       2.05380000       0.22000000
H       -0.34110000       2.03160000      -0.93080000
H       -0.66540000       2.01040000       0.80790000
H       -0.95420000      -0.28290000      -0.17390000
H        0.72350000      -0.98510000      -1.86330000
H        1.96660000       0.00730000      -1.06080000
H        3.40000000      -1.14630000       0.62850000
H        2.86880000      -2.64850000       1.41100000
H        3.19350000      -2.62720000      -0.32840000
H        1.44860000      -0.02660000       1.71360000
H        0.00420000      -1.03220000       1.98990000
H       -0.77840000      -4.69450000      -0.19560000
