25
Properties=species:S:1:pos:R:3 gdb_118072=T pbc="F F F"
C       -0.16740000       1.55910000       0.06130000
C       -0.05100000       0.04730000       0.16540000
O       -1.34090000      -0.51080000       0.00390000
C       -1.41240000      -1.93700000      -0.00910000
C       -1.32830000      -2.52180000       1.40110000
C       -2.75630000      -2.25870000      -0.69060000
O       -3.80960000      -1.59030000      -0.00610000
C       -2.74450000      -1.92040000      -2.18750000
C       -4.07660000      -2.22530000      -2.87560000
H        0.81590000       2.02510000       0.17500000
H       -0.57880000       1.84740000      -0.91030000
H       -0.82690000       1.94840000       0.84230000
H        0.62500000      -0.34310000      -0.61300000
H        0.37930000      -0.23340000       1.13860000
H       -0.59250000      -2.33460000      -0.62880000
H       -0.41490000      -2.20960000       1.91480000
H       -2.19350000      -2.20010000       1.98610000
H       -1.32680000      -3.61580000       1.35730000
H       -2.95830000      -3.33070000      -0.56790000
H       -3.51080000      -0.67720000       0.09450000
H       -2.49230000      -0.85900000      -2.29740000
H       -1.93400000      -2.48530000      -2.66730000
H       -4.05620000      -1.93010000      -3.92910000
H       -4.30830000      -3.29590000      -2.83350000
H       -4.89210000      -1.69130000      -2.38160000
