18
Properties=species:S:1:pos:R:3 gdb_30194=T pbc="F F F"
C       -0.65370000       1.49010000      -0.34390000
C        0.04990000       0.18700000      -0.01850000
C        0.85960000      -0.54940000      -1.15830000
C        2.02560000      -0.42560000      -0.19980000
N        3.15310000      -0.92910000       0.24510000
C        3.19650000      -0.46060000       1.55160000
N        4.29440000      -0.78060000       2.35170000
C        2.06190000       0.26100000       1.89350000
N        1.35340000       0.32330000       0.69920000
H        0.02160000       2.17590000      -0.86400000
H       -1.52010000       1.30010000      -0.98600000
H       -1.01010000       1.98220000       0.56660000
H       -0.61690000      -0.50480000       0.50680000
H        0.52540000      -1.56930000      -1.36180000
H        0.93570000       0.00160000      -2.09980000
H        5.09150000      -1.03750000       1.78490000
H        4.54410000      -0.05930000       3.01390000
H        1.80000000       0.80510000       2.78440000
