21
Properties=species:S:1:pos:R:3 gdb_58916=T pbc="F F F"
C       -0.03040000       1.56530000       0.05250000
C       -0.04380000       0.02870000       0.00770000
C        0.76760000      -0.56620000       1.16920000
C       -1.46120000      -0.49420000      -0.03260000
C       -2.57880000      -0.18980000      -1.06410000
C       -3.27270000      -1.16390000      -0.09370000
C       -1.96450000      -1.97230000       0.14650000
O       -2.04260000      -1.90450000       1.60270000
C       -2.50650000      -0.60000000       1.13960000
H        0.99630000       1.94450000       0.03560000
H       -0.56320000       1.99930000      -0.79920000
H       -0.50550000       1.93280000       0.96950000
H        0.43430000      -0.28130000      -0.93370000
H        0.34020000      -0.28250000       2.13580000
H        0.78930000      -1.65820000       1.13140000
H        1.79930000      -0.20090000       1.13530000
H       -2.96300000       0.83410000      -1.08490000
H       -2.41040000      -0.55130000      -2.08320000
H       -4.28740000      -1.56040000      -0.09920000
H       -1.61420000      -2.89480000      -0.31760000
H       -2.81720000       0.13800000       1.87940000
