16
Properties=species:S:1:pos:R:3 gdb_43299=T pbc="F F F"
O        0.01740000      -0.03010000       0.24280000
C       -0.03970000       1.16270000       0.02240000
C       -1.30550000       1.90900000      -0.08790000
C       -1.28110000       3.20920000      -0.41490000
C       -0.03690000       3.91730000      -0.77560000
C        1.14920000       4.12800000       0.11370000
C        1.33990000       3.02790000       1.14290000
C        1.21280000       2.02350000      -0.04520000
N        1.20620000       3.16800000      -1.05240000
H       -2.22540000       1.36860000       0.10650000
H       -2.20270000       3.78160000      -0.48410000
H       -0.17670000       4.71660000      -1.49980000
H        1.67670000       5.07700000       0.09960000
H        2.34750000       3.02460000       1.56070000
H        0.61360000       2.95880000       1.95760000
H        2.08240000       1.38730000      -0.20110000
