19
Properties=species:S:1:pos:R:3 gdb_33566=T pbc="F F F"
C       -0.26000000      -1.32310000      -0.53880000
C       -0.13310000      -0.16160000      -0.25860000
C        0.04410000       1.24230000       0.11450000
C       -0.42900000       1.53850000       1.57330000
C        0.27280000       2.85900000       1.95030000
C        1.55230000       2.93290000       1.06460000
C        1.54850000       1.65250000       0.20520000
C       -0.66270000       2.11340000      -0.83450000
C       -1.23040000       2.85200000      -1.59360000
H       -0.37970000      -2.34610000      -0.79700000
H       -1.51710000       1.58140000       1.64760000
H       -0.08120000       0.71410000       2.20360000
H       -0.38140000       3.70910000       1.74130000
H        0.50380000       2.88950000       3.01810000
H        1.51900000       3.81870000       0.42530000
H        2.46640000       3.00340000       1.65960000
H        2.07960000       0.83880000       0.70890000
H        1.99490000       1.78370000      -0.78220000
H       -1.73800000       3.48990000      -2.27420000
