17
Properties=species:S:1:pos:R:3 gdb_25871=T pbc="F F F"
C       -0.07550000       1.49140000      -0.03310000
C        0.02550000      -0.01990000      -0.00030000
O        1.09390000      -0.60320000       0.01130000
C       -1.24350000      -0.77080000       0.01760000
C       -1.37350000      -2.13990000       0.04770000
N       -2.72090000      -2.37310000       0.05450000
C       -3.36320000      -1.15600000       0.02860000
C       -4.84870000      -1.02050000       0.02730000
N       -2.49280000      -0.17590000       0.00600000
H        0.92690000       1.92070000      -0.04410000
H       -0.63810000       1.81480000      -0.91460000
H       -0.63510000       1.85290000       0.83550000
H       -0.63940000      -2.92710000       0.06410000
H       -3.16270000      -3.27790000       0.07470000
H       -5.29990000      -1.46520000       0.92180000
H       -5.10050000       0.04020000       0.00550000
H       -5.30170000      -1.50200000      -0.84690000
