25
Properties=species:S:1:pos:R:3 gdb_83866=T pbc="F F F"
C       -0.33080000       1.54180000      -0.21040000
C       -0.02530000       0.06690000      -0.05980000
C        1.33020000      -0.54990000      -0.35840000
C        2.55490000       0.31290000      -0.66420000
C        3.41660000       0.58580000       0.57900000
C        2.57470000       1.14970000       1.72770000
C        1.49560000       0.15110000       2.19440000
C        0.52020000       0.78590000       3.19520000
C        0.77580000      -0.57020000       1.05620000
H        0.49490000       2.18860000       0.09090000
H       -0.56660000       1.77980000      -1.25470000
H       -1.20150000       1.82210000       0.39260000
H       -0.86140000      -0.55020000      -0.38320000
H        1.30410000      -1.49370000      -0.89490000
H        3.16000000      -0.18700000      -1.42750000
H        2.25340000       1.27150000      -1.10530000
H        3.89150000      -0.34910000       0.90650000
H        4.22810000       1.27780000       0.32610000
H        3.21440000       1.39490000       2.58400000
H        2.11650000       2.09720000       1.41660000
H        2.04030000      -0.64070000       2.73070000
H       -0.04010000       1.60720000       2.73650000
H       -0.20590000       0.05230000       3.56130000
H        1.05500000       1.18980000       4.06240000
H        0.37280000      -1.52700000       1.38160000
