18
Properties=species:S:1:pos:R:3 gdb_75840=T pbc="F F F"
C        0.09260000       1.40700000       0.04820000
N       -0.11180000      -0.02510000       0.04830000
C       -0.03530000      -0.75800000      -1.11580000
O       -0.00250000      -0.35300000      -2.24570000
O        0.01690000      -2.09500000      -0.79030000
C        0.07400000      -2.22720000       0.61240000
C        1.27600000      -1.65550000       1.32580000
C       -0.02000000      -0.85780000       1.21660000
C       -0.85290000      -0.48480000       2.41480000
H        1.07380000       1.67390000       0.46260000
H        0.04030000       1.74330000      -0.98830000
H       -0.68220000       1.91700000       0.62950000
H       -0.45550000      -3.09750000       0.97880000
H        1.51470000      -2.09100000       2.29040000
H        2.12820000      -1.34720000       0.72990000
H       -0.48840000       0.43410000       2.88690000
H       -1.89950000      -0.33440000       2.13110000
H       -0.81080000      -1.27790000       3.16630000
