20
Properties=species:S:1:pos:R:3 gdb_53495=T pbc="F F F"
C        0.02660000       1.48900000       0.05820000
C       -0.00960000       0.03290000       0.05290000
C       -0.02210000      -1.17170000       0.04890000
C       -0.05850000      -2.62920000       0.05110000
C       -1.47970000      -3.20820000      -0.15560000
C       -2.07620000      -2.79350000      -1.51080000
C       -1.39950000      -4.73570000      -0.09220000
N       -2.37280000      -5.34210000       0.64700000
O       -0.53910000      -5.36630000      -0.67810000
H        0.77190000       1.86570000       0.76760000
H        0.28170000       1.88680000      -0.93040000
H       -0.94280000       1.91240000       0.34410000
H        0.58800000      -3.03870000      -0.73320000
H        0.34690000      -3.00550000       0.99890000
H       -2.12610000      -2.83510000       0.64790000
H       -1.47370000      -3.20460000      -2.32640000
H       -3.09960000      -3.16450000      -1.62350000
H       -2.08950000      -1.70440000      -1.59990000
H       -3.08730000      -4.82530000       1.12730000
H       -2.39130000      -6.34840000       0.68190000
