18
Properties=species:S:1:pos:R:3 gdb_66211=T pbc="F F F"
C       -0.09430000       1.72650000       0.11970000
C        0.00230000       0.20390000       0.06660000
C        0.68300000      -0.32850000      -1.21070000
C        2.18700000      -0.04080000      -1.16000000
N        2.79610000      -0.40470000       0.11370000
C        2.04140000      -0.50190000       1.12070000
O        0.70350000      -0.28720000       1.22950000
C       -1.38260000      -0.43850000       0.15390000
O       -2.37200000       0.02640000      -0.34460000
H        0.87700000       2.19300000      -0.05970000
H       -0.80600000       2.06840000      -0.63510000
H       -0.45370000       2.04420000       1.10170000
H        0.52730000      -1.41250000      -1.27190000
H        0.20830000       0.12120000      -2.08720000
H        2.70030000      -0.59400000      -1.95360000
H        2.38770000       1.02070000      -1.35460000
H        2.43740000      -0.79880000       2.09010000
H       -1.38420000      -1.40820000       0.69850000
