21
Properties=species:S:1:pos:R:3 gdb_33229=T pbc="F F F"
C        0.02910000       1.57970000       0.12680000
C       -0.05140000       0.05770000      -0.01900000
C        0.78130000      -0.47850000      -1.18720000
C        0.70180000      -2.00770000      -1.33790000
C        1.46580000      -2.52070000      -2.51850000
C        2.57450000      -3.32810000      -2.54170000
N        2.89160000      -3.48860000      -3.87480000
C        1.97410000      -2.78170000      -4.59090000
N        1.10330000      -2.18770000      -3.81020000
H        1.06100000       1.90720000       0.29680000
H       -0.33010000       2.08240000      -0.77800000
H       -0.57530000       1.93510000       0.96760000
H        0.28050000      -0.41770000       0.91430000
H       -1.09910000      -0.24260000      -0.15430000
H        0.44830000      -0.01890000      -2.12530000
H        1.83150000      -0.18430000      -1.05770000
H        1.07480000      -2.49110000      -0.42670000
H       -0.35220000      -2.29840000      -1.43810000
H        3.15110000      -3.79290000      -1.75920000
H        3.65240000      -4.03230000      -4.24510000
H        1.99230000      -2.74130000      -5.67010000
