21
Properties=species:S:1:pos:R:3 gdb_89483=T pbc="F F F"
C       -0.21550000       1.54450000       0.03890000
C        0.02960000       0.03920000      -0.01030000
C        0.89600000      -0.46950000      -1.20670000
C        2.01490000      -1.25390000      -0.47340000
C        2.71140000      -2.35250000      -1.23740000
C        2.92010000      -0.22720000       0.24440000
O        2.06840000       0.25060000       1.29570000
C        0.87390000      -0.52080000       1.15670000
O        1.30510000      -1.77440000       0.67660000
H        0.73090000       2.09020000       0.08320000
H       -0.77030000       1.88090000      -0.84270000
H       -0.79990000       1.82110000       0.92340000
H       -0.93060000      -0.48770000      -0.00490000
H        0.33110000      -1.13470000      -1.86450000
H        1.29610000       0.34760000      -1.81410000
H        3.26020000      -1.93650000      -2.08830000
H        3.42050000      -2.88210000      -0.59480000
H        1.98420000      -3.07410000      -1.62040000
H        3.81020000      -0.70110000       0.67620000
H        3.22910000       0.60080000      -0.40320000
H        0.38660000      -0.61160000       2.12800000
