19
Properties=species:S:1:pos:R:3 gdb_89009=T pbc="F F F"
O       -0.13540000       1.31530000       0.42980000
C       -0.03630000      -0.05680000       0.21750000
C       -0.85320000      -1.01140000       1.06630000
C       -1.20650000      -0.76840000      -0.39010000
O       -2.27100000       0.08190000      -0.70880000
C       -3.54920000      -0.50030000      -0.61710000
C       -4.32710000      -0.39510000       0.71670000
O       -5.44130000       0.22460000       0.04110000
C       -4.67540000       0.38390000      -1.17130000
H       -0.98540000       1.58910000       0.06100000
H        0.96450000      -0.35740000      -0.07820000
H       -0.43400000      -1.97380000       1.34000000
H       -1.48740000      -0.55090000       1.81530000
H       -1.04670000      -1.56820000      -1.11250000
H       -3.53520000      -1.51450000      -1.03230000
H       -4.61300000      -1.32630000       1.21700000
H       -3.85140000       0.28300000       1.43750000
H       -4.35170000       1.42120000      -1.33010000
H       -5.21460000       0.02700000      -2.05470000
