25
Properties=species:S:1:pos:R:3 gdb_77566=T pbc="F F F"
C       -0.43180000       1.53100000       0.40380000
C       -0.10410000       0.05250000       0.22060000
C        0.27600000      -0.45800000      -1.18320000
C       -0.70320000      -1.05400000      -2.15560000
C        1.59480000       0.12670000      -1.61200000
C        1.59200000      -1.01980000      -0.63790000
C        1.24450000      -0.55990000       0.79120000
C        2.23200000       0.39030000       1.47010000
C        0.96330000      -1.75870000       1.70060000
H        0.35680000       2.18440000       0.01930000
H       -1.35750000       1.78760000      -0.12370000
H       -0.57870000       1.77670000       1.46140000
H       -0.94310000      -0.53750000       0.60720000
H       -1.36290000      -0.28750000      -2.58150000
H       -0.18760000      -1.54080000      -2.99050000
H       -1.34070000      -1.80470000      -1.67340000
H        1.89850000      -0.13260000      -2.62220000
H        1.90750000       1.12330000      -1.31210000
H        2.07200000      -1.96490000      -0.87280000
H        2.48640000       1.25080000       0.84590000
H        1.82610000       0.77390000       2.41340000
H        3.16640000      -0.13330000       1.70280000
H        1.88900000      -2.29580000       1.93990000
H        0.50930000      -1.43970000       2.64600000
H        0.28150000      -2.46910000       1.22110000
