23
Properties=species:S:1:pos:R:3 gdb_112743=T pbc="F F F"
C       -0.25660000       1.75890000       0.22470000
C       -0.24640000       0.26060000       0.54600000
C       -1.41090000      -0.49260000      -0.08640000
C       -1.42390000      -0.67500000      -1.63640000
C       -1.90140000      -2.14110000      -1.43700000
O       -1.36000000      -3.16550000      -2.23360000
C       -1.48470000      -2.02650000       0.03850000
C       -0.46760000      -2.92860000       0.68390000
C       -1.89110000      -2.88650000       1.19180000
H        0.59290000       2.27100000       0.68720000
H       -0.20270000       1.93320000      -0.85530000
H       -1.17300000       2.23530000       0.59040000
H        0.69700000      -0.18370000       0.20310000
H       -0.27170000       0.12270000       1.63560000
H       -2.35550000      -0.04450000       0.24820000
H       -2.05540000      -0.01300000      -2.23290000
H       -0.40660000      -0.65210000      -2.04520000
H       -2.98720000      -2.23260000      -1.54610000
H       -0.40050000      -3.10750000      -2.16680000
H       -0.15960000      -3.81210000       0.13260000
H        0.31080000      -2.48690000       1.29730000
H       -2.07480000      -2.40770000       2.14910000
H       -2.52860000      -3.74200000       0.98980000
