23
Properties=species:S:1:pos:R:3 gdb_112713=T pbc="F F F"
C        0.13330000       1.44150000      -0.13060000
C        0.01930000      -0.08070000      -0.01980000
C       -1.41930000      -0.56220000      -0.04600000
O       -2.02330000      -0.27220000      -1.28340000
C       -3.09250000      -1.20680000      -1.39240000
C       -3.59900000      -1.25050000      -2.82110000
C       -2.45920000      -2.49290000      -0.80220000
C       -1.77020000      -3.41770000      -1.79970000
O       -1.48540000      -1.97430000       0.11150000
H        1.18000000       1.75770000      -0.10380000
H       -0.30750000       1.79690000      -1.06600000
H       -0.38580000       1.94080000       0.69510000
H        0.55000000      -0.57330000      -0.84160000
H        0.46800000      -0.43560000       0.91450000
H       -2.00340000      -0.08860000       0.76790000
H       -3.91170000      -0.89190000      -0.72370000
H       -2.80140000      -1.52200000      -3.51630000
H       -4.41060000      -1.97850000      -2.91620000
H       -3.98650000      -0.26990000      -3.10990000
H       -3.20840000      -3.05650000      -0.23100000
H       -1.05860000      -2.86230000      -2.41740000
H       -1.21820000      -4.18970000      -1.25680000
H       -2.49640000      -3.91200000      -2.45310000
