16
Properties=species:S:1:pos:R:3 gdb_96423=T pbc="F F F"
O       -0.05200000       1.41450000       0.04240000
C        0.02170000       0.00780000       0.03330000
C        0.78010000      -0.56780000       1.23690000
O        0.68510000      -1.98580000       1.22620000
C       -0.65080000      -2.39780000       1.27790000
O       -1.39900000      -1.94850000       0.16110000
C       -1.42320000      -0.53540000       0.05440000
C       -2.22510000       0.07690000       1.13900000
N       -2.86770000       0.51750000       1.99180000
H        0.83370000       1.77380000      -0.07070000
H        0.47910000      -0.38010000      -0.88780000
H        1.84420000      -0.31850000       1.18740000
H        0.36490000      -0.14820000       2.16630000
H       -0.66040000      -3.48690000       1.22860000
H       -1.12770000      -2.04410000       2.20750000
H       -1.91590000      -0.30210000      -0.89350000
