18
Properties=species:S:1:pos:R:3 gdb_38215=T pbc="F F F"
C        0.03510000       1.67630000       0.02470000
C        1.54490000       1.32150000       0.03160000
C        1.13590000       0.06740000       0.91240000
C       -0.07210000       0.13380000      -0.03670000
O       -1.35750000      -0.48250000      -0.07980000
C       -1.59040000      -0.52020000      -1.43970000
N       -0.63420000      -0.32560000      -2.25780000
C        0.54870000      -0.24900000      -1.37620000
C        1.70430000       0.78310000      -1.42330000
H       -0.32190000       2.07050000       0.97810000
H       -0.35520000       2.26020000      -0.81160000
H        2.28850000       2.02570000       0.40030000
H        1.76060000      -0.82860000       0.88050000
H        0.92820000       0.36250000       1.94240000
H       -2.62210000      -0.72140000      -1.70590000
H        0.97020000      -1.26320000      -1.34210000
H        1.55240000       1.57830000      -2.15770000
H        2.67070000       0.31340000      -1.62040000
