25
Properties=species:S:1:pos:R:3 gdb_91418=T pbc="F F F"
C        0.32420000       1.32310000      -0.53550000
C        0.24140000      -0.16330000      -0.17650000
C        0.86000000      -1.05790000      -1.28070000
C        1.15090000      -2.47680000      -0.76240000
C        0.17720000      -2.85810000       0.39330000
C        1.11750000      -2.02620000       1.31530000
C        2.25680000      -2.39240000       0.32030000
C        0.77570000      -0.52060000       1.25000000
C        1.94790000       0.33850000       1.74830000
H        1.36100000       1.66830000      -0.60450000
H       -0.14870000       1.50860000      -1.50630000
H       -0.18750000       1.94720000       0.20550000
H       -0.82560000      -0.41430000      -0.15540000
H        0.16940000      -1.08800000      -2.13260000
H        1.79330000      -0.61910000      -1.65930000
H        1.28610000      -3.18790000      -1.58160000
H       -0.87720000      -2.57750000       0.31840000
H        0.24260000      -3.92490000       0.62470000
H        1.23350000      -2.34920000       2.35400000
H        2.68060000      -3.37430000       0.54980000
H        3.07280000      -1.68240000       0.16080000
H       -0.05680000      -0.34770000       1.94680000
H        2.80410000       0.31620000       1.06710000
H        1.65470000       1.38470000       1.87230000
H        2.29570000      -0.02380000       2.72220000
