23
Properties=species:S:1:pos:R:3 gdb_106770=T pbc="F F F"
C        0.27020000       1.53600000       0.31050000
C       -0.07580000       0.06580000       0.03150000
C        0.56560000      -0.46630000      -1.22080000
C        2.02190000      -0.90790000      -1.29390000
C        0.93200000      -1.86210000      -1.68710000
C        0.71310000      -3.24440000      -1.16420000
O        0.53380000      -1.59390000      -3.03910000
C        0.08160000      -0.25680000      -2.66300000
C       -1.41370000      -0.11870000      -2.87060000
H        1.35180000       1.67080000       0.41210000
H       -0.06850000       2.18520000      -0.50400000
H       -0.20370000       1.88490000       1.23330000
H        0.24370000      -0.54890000       0.88260000
H       -1.16540000      -0.04800000      -0.03030000
H        2.68950000      -0.51440000      -2.05660000
H        2.48470000      -1.08830000      -0.32730000
H        0.96990000      -3.29930000      -0.10230000
H       -0.32960000      -3.55260000      -1.28990000
H        1.34550000      -3.96160000      -1.70020000
H        0.62190000       0.50860000      -3.23700000
H       -1.96070000      -0.87110000      -2.29460000
H       -1.76060000       0.87570000      -2.56830000
H       -1.65410000      -0.25690000      -3.92910000
