15
Properties=species:S:1:pos:R:3 gdb_19779=T pbc="F F F"
O        0.01450000       0.03030000       0.08740000
C       -0.01850000       1.23370000       0.05010000
C       -1.25750000       2.09130000      -0.07240000
C       -1.50450000       3.17140000       0.97080000
C       -0.75750000       3.50130000      -0.28560000
N        0.72130000       3.51840000      -0.33460000
C        1.43280000       3.22690000       0.90830000
C        1.18800000       2.14380000      -0.08970000
H       -2.10320000       1.65120000      -0.58630000
H       -2.52670000       3.52990000       1.03050000
H       -1.01150000       3.11860000       1.93250000
H       -1.21070000       4.17140000      -1.00620000
H        2.42890000       3.65690000       0.96760000
H        0.90360000       3.20850000       1.85400000
H        2.00710000       1.75940000      -0.69090000
