16
Properties=species:S:1:pos:R:3 gdb_12054=T pbc="F F F"
C        0.05490000       1.66700000       0.38980000
C       -0.01280000       0.16630000       0.12130000
C        0.92200000      -0.43760000      -0.98680000
C        1.61710000      -1.26800000       0.09510000
O        2.12750000      -0.35560000       1.08470000
C        0.75530000      -0.72820000       1.15260000
C       -1.44640000      -0.30930000       0.00840000
O       -1.86380000      -1.10840000      -0.79060000
H        1.08070000       1.94610000       0.64040000
H       -0.25530000       2.24040000      -0.49010000
H       -0.59490000       1.95370000       1.22480000
H        0.34680000      -1.04120000      -1.69100000
H        1.56200000       0.27110000      -1.51670000
H        2.11080000      -2.22870000       0.01400000
H        0.39180000      -1.15330000       2.08170000
H       -2.12470000       0.13640000       0.77310000
