21
Properties=species:S:1:pos:R:3 gdb_115290=T pbc="F F F"
C        0.15210000       1.42950000      -0.09910000
C       -0.03090000      -0.05340000      -0.05900000
C       -1.14610000      -0.77600000       0.07940000
C       -2.55970000      -0.31750000       0.25190000
C       -0.80150000      -2.24440000       0.04390000
C       -1.40100000      -3.02330000      -1.13360000
O       -0.86740000      -4.32920000      -1.19400000
O        0.62630000      -2.29750000      -0.08120000
C        1.15310000      -0.97820000      -0.17710000
H        0.82400000       1.76650000       0.70060000
H        0.61080000       1.74480000      -1.04510000
H       -0.79310000       1.96660000       0.00800000
H       -2.63370000       0.77080000       0.31150000
H       -3.19490000      -0.64940000      -0.57870000
H       -2.99860000      -0.73540000       1.16680000
H       -1.08710000      -2.76140000       0.97510000
H       -2.48550000      -3.12340000      -1.01420000
H       -1.21020000      -2.46070000      -2.06290000
H        0.08890000      -4.21790000      -1.12060000
H        1.68920000      -0.85080000      -1.13200000
H        1.88990000      -0.81380000       0.62610000
