17
Properties=species:S:1:pos:R:3 gdb_30147=T pbc="F F F"
O       -0.44900000       0.15300000       2.03520000
C       -0.03210000      -0.07020000       0.73300000
C       -0.52950000      -1.22710000      -0.08210000
C       -0.94480000       0.19800000      -0.46010000
C       -2.32750000       0.64390000      -0.22810000
C       -3.13850000       1.41030000      -1.02710000
N       -4.32270000       1.55160000      -0.33090000
C       -4.18970000       0.88270000       0.84150000
N       -3.00470000       0.32270000       0.93840000
H       -1.42260000       0.11400000       2.03810000
H        1.00950000       0.21380000       0.61310000
H        0.15240000      -1.75190000      -0.74340000
H       -1.30220000      -1.84250000       0.36670000
H       -0.48380000       0.62130000      -1.34690000
H       -2.99020000       1.85470000      -1.99650000
H       -5.13770000       2.05260000      -0.64160000
H       -4.97600000       0.83530000       1.57940000
