19
Properties=species:S:1:pos:R:3 gdb_52875=T pbc="F F F"
C        0.09740000       1.47570000       0.24140000
C        0.07900000       0.02260000       0.16120000
C        0.03200000      -1.18070000       0.10180000
C        0.04930000      -2.62340000       0.01180000
C       -0.79480000      -3.42670000       0.91570000
O       -1.15530000      -3.25790000      -0.45470000
C        1.34220000      -3.22000000      -0.55230000
C        1.52290000      -2.87990000      -2.03080000
O        2.45210000      -2.82060000       0.23580000
H        0.71620000       1.91210000      -0.54990000
H       -0.91380000       1.88290000       0.13500000
H        0.49380000       1.81670000       1.20400000
H       -0.46180000      -4.42450000       1.19840000
H       -1.43860000      -2.92160000       1.63310000
H        1.27550000      -4.30670000      -0.43520000
H        1.57620000      -1.79510000      -2.17400000
H        2.44840000      -3.32570000      -2.40380000
H        0.68160000      -3.26040000      -2.61740000
H        2.48320000      -1.85610000       0.21320000
