17
Properties=species:S:1:pos:R:3 gdb_27637=T pbc="F F F"
C       -0.00280000       1.49260000       0.06260000
C        0.00750000       0.00440000      -0.04770000
C       -0.03250000      -0.82170000      -1.13960000
C        0.00210000      -2.17280000      -0.66060000
C       -0.02030000      -3.35520000      -1.43740000
N       -0.03860000      -4.32780000      -2.06850000
C        0.06270000      -2.13130000       0.72520000
C        0.11810000      -3.23360000       1.72740000
N        0.06490000      -0.80890000       1.07020000
H        0.89820000       1.87530000       0.55750000
H       -0.04730000       1.93720000      -0.93380000
H       -0.86860000       1.85780000       0.62860000
H       -0.08100000      -0.51460000      -2.17200000
H        1.03060000      -3.18810000       2.33380000
H       -0.73690000      -3.20440000       2.41340000
H        0.10380000      -4.19720000       1.21420000
H        0.10330000      -0.47240000       2.01810000
