21
Properties=species:S:1:pos:R:3 gdb_115007=T pbc="F F F"
C       -0.49470000       1.57350000       0.09960000
O       -0.31060000       0.24050000       0.51480000
C       -1.26090000      -0.65780000      -0.01010000
C       -1.06740000      -1.01430000      -1.50830000
C       -1.47480000      -2.46590000      -1.55530000
C       -1.56240000      -2.99960000      -0.33960000
C       -1.22670000      -2.00860000       0.75760000
C        0.12780000      -2.30480000       1.40960000
O       -2.24740000      -1.93710000       1.75970000
H        0.25400000       2.18000000       0.61540000
H       -0.35780000       1.69620000      -0.98550000
H       -1.49720000       1.94490000       0.36410000
H       -2.27420000      -0.25450000       0.13540000
H       -1.65790000      -0.38230000      -2.18080000
H       -0.01330000      -0.88050000      -1.78840000
H       -1.65200000      -2.99320000      -2.48670000
H       -1.81670000      -4.03000000      -0.11260000
H        0.93580000      -2.29500000       0.67330000
H        0.34620000      -1.55490000       2.17260000
H        0.11100000      -3.29850000       1.87450000
H       -2.11670000      -2.67140000       2.36880000
