14
Properties=species:S:1:pos:R:3 gdb_53889=T pbc="F F F"
N       -0.29150000       1.14230000      -0.24620000
C        0.01610000      -0.12710000       0.08630000
O        1.12250000      -0.56910000       0.33400000
C       -1.22110000      -1.04590000       0.12440000
O       -2.32660000      -0.64350000      -0.14250000
C       -0.92310000      -2.49270000       0.48800000
O       -2.10260000      -3.21740000       0.77640000
C       -2.88100000      -3.57270000      -0.27370000
O       -3.92400000      -4.13040000      -0.13230000
H        0.43260000       1.83860000      -0.30470000
H       -1.25250000       1.38210000      -0.43080000
H       -0.34380000      -2.94390000      -0.33050000
H       -0.28680000      -2.52950000       1.37390000
H       -2.42980000      -3.31590000      -1.25070000
