19
Properties=species:S:1:pos:R:3 gdb_14919=T pbc="F F F"
N        0.00160000      -1.17940000      -0.03280000
C       -0.00660000      -0.02350000      -0.01280000
C       -0.00740000       1.43970000       0.02760000
C       -0.76300000       1.96230000       1.27240000
C       -0.75650000       3.49630000       1.31050000
C        0.67020000       4.05960000       1.24960000
C        1.42610000       3.53300000       0.02170000
C        1.43410000       1.99920000      -0.02500000
H       -0.54230000       1.78510000      -0.86840000
H       -1.78730000       1.57730000       1.27100000
H       -0.27570000       1.56340000       2.17060000
H       -1.33670000       3.88160000       0.46060000
H       -1.26640000       3.84200000       2.21600000
H        0.64440000       5.15450000       1.23700000
H        1.21270000       3.77050000       2.16010000
H        0.95260000       3.92000000      -0.89110000
H        2.45630000       3.90450000       0.01780000
H        1.99530000       1.60150000       0.82960000
H        1.93680000       1.63990000      -0.92810000
