17
Properties=species:S:1:pos:R:3 gdb_105821=T pbc="F F F"
C        0.02310000       1.33870000       0.25960000
O       -0.03470000      -0.00740000      -0.20000000
C       -1.28280000      -0.56780000      -0.07070000
C       -1.85010000      -1.10850000       1.21360000
O       -3.04010000      -0.80270000       1.85330000
C       -1.62270000      -2.06910000       0.05390000
C       -2.64040000      -1.88610000      -1.10270000
O       -3.62820000      -0.88300000      -0.74890000
C       -2.33410000      -0.46860000      -1.23070000
H        1.04910000       1.68000000       0.10830000
H       -0.65810000       1.98880000      -0.30640000
H       -0.23300000       1.40600000       1.32460000
H       -1.05440000      -1.22170000       1.94860000
H       -3.69800000      -0.71460000       1.15050000
H       -0.95240000      -2.91690000       0.11700000
H       -2.93920000      -2.62490000      -1.83520000
H       -2.29490000       0.19180000      -2.08880000
