15
Properties=species:S:1:pos:R:3 gdb_3494=T pbc="F F F"
C       -0.07600000      -1.24880000      -0.09610000
C       -0.02580000      -0.04870000      -0.02540000
C        0.00720000       1.39790000       0.03150000
C        0.07660000       2.13060000       1.41960000
C        1.55500000       1.65780000       1.53240000
C        1.38400000       2.15410000       0.06730000
C        0.60600000       3.37050000       0.64460000
H       -0.11660000      -2.30810000      -0.15560000
H       -0.72030000       1.82860000      -0.66440000
H       -0.69110000       2.10630000       2.19360000
H        2.20640000       2.25800000       2.17260000
H        1.72040000       0.58880000       1.67380000
H        2.13180000       2.15690000      -0.72630000
H       -0.09640000       3.87390000      -0.02570000
H        1.19270000       4.08680000       1.22430000
