21
Properties=species:S:1:pos:R:3 gdb_65135=T pbc="F F F"
C        0.77640000      -0.14220000      -1.36090000
C        0.07110000       0.01670000      -0.02640000
C        0.85070000      -0.24270000       1.21530000
N        0.46720000       1.13260000       0.85440000
C       -1.37780000      -0.39370000      -0.06110000
C       -2.53980000       0.18340000       0.64370000
C       -2.51580000       1.70480000       0.77670000
C       -2.27000000       1.74040000      -0.74900000
N       -2.43200000       0.24140000      -0.88440000
H        1.84600000       0.07490000      -1.27060000
H        0.67050000      -1.16480000      -1.73890000
H        0.34970000       0.52820000      -2.11420000
H        0.35190000      -0.63470000       2.09740000
H        1.89090000      -0.54050000       1.11090000
H        1.26330000       1.61840000       0.44740000
H       -1.45760000      -1.47490000      -0.18540000
H       -3.26690000      -0.46270000       1.12870000
H       -3.49850000       2.10030000       1.04200000
H       -1.75260000       2.12780000       1.42760000
H       -3.05660000       2.23750000      -1.31960000
H       -1.29950000       2.11740000      -1.08310000
