17
Properties=species:S:1:pos:R:3 gdb_75037=T pbc="F F F"
C       -0.19330000       1.45020000       0.12130000
C        0.05400000      -0.01760000      -0.08420000
C       -0.08170000      -0.62180000      -1.27540000
C        0.15080000      -2.02840000      -1.54540000
C        0.05670000      -3.01920000      -0.65090000
N       -0.31130000      -2.88410000       0.69880000
C        0.08770000      -1.90830000       1.60000000
O        0.09690000      -2.12190000       2.79440000
N        0.48720000      -0.67630000       1.09040000
H        0.69550000       1.94420000       0.53670000
H       -0.44120000       1.94180000      -0.82060000
H       -1.01420000       1.61960000       0.82950000
H       -0.38720000      -0.00080000      -2.11090000
H        0.41470000      -2.30630000      -2.56070000
H        0.24510000      -4.04690000      -0.94370000
H       -0.51030000      -3.74050000       1.19290000
H        0.70780000      -0.06550000       1.86380000
