22
Properties=species:S:1:pos:R:3 gdb_76744=T pbc="F F F"
C       -0.69350000       1.49000000      -0.63060000
C       -0.27240000       0.05270000      -0.35570000
N        1.02210000      -0.46380000      -0.92650000
C        1.85680000       0.37780000      -1.76320000
C        1.50840000      -0.84040000       0.40310000
C        2.29950000      -2.09740000       0.60720000
C        1.54470000       0.35140000       1.35180000
C        0.23390000      -0.33350000       1.03910000
O       -0.53630000      -0.96890000       1.99730000
H        0.04720000       2.21790000      -0.28770000
H       -0.86370000       1.65770000      -1.69930000
H       -1.63630000       1.69920000      -0.11340000
H       -1.08260000      -0.62360000      -0.65710000
H        2.19470000       1.31900000      -1.29510000
H        2.75100000      -0.18580000      -2.05060000
H        1.32170000       0.63160000      -2.68370000
H        3.33200000      -1.98440000       0.25600000
H        2.33620000      -2.35990000       1.66870000
H        1.84380000      -2.92730000       0.05870000
H        1.92860000       0.12020000       2.34130000
H        1.77020000       1.35600000       1.00530000
H       -0.84760000      -0.30740000       2.62430000
