17
Properties=species:S:1:pos:R:3 gdb_70291=T pbc="F F F"
O       -0.03360000       1.43620000       0.01550000
C        0.00040000       0.04530000       0.05390000
C       -0.37490000      -0.76990000      -1.16960000
C       -1.27440000      -0.78990000       0.04400000
C       -1.09360000      -1.92770000       1.04460000
C        0.33030000      -1.74440000       1.53700000
C        0.98450000      -2.65930000       2.46970000
O        0.47470000      -3.66980000       2.90490000
C        0.90020000      -0.64200000       1.01840000
H        0.58590000       1.73790000      -0.65740000
H       -0.73950000      -0.19740000      -2.01680000
H        0.21420000      -1.64640000      -1.42070000
H       -2.23180000      -0.29100000      -0.03980000
H       -1.80220000      -1.86600000       1.87840000
H       -1.23770000      -2.91460000       0.59090000
H        2.01160000      -2.35530000       2.77370000
H        1.89710000      -0.28180000       1.25140000
