14
Properties=species:S:1:pos:R:3 gdb_130124=T pbc="F F F"
N        0.06110000       1.34480000       0.06080000
C        0.00330000      -0.03540000       0.00840000
N       -1.07340000      -0.73580000       0.07290000
N       -0.62870000      -2.06180000       0.17330000
C        0.74130000      -2.18080000      -0.04930000
N        1.50410000      -3.18170000      -0.19730000
N        1.16520000      -0.81800000      -0.03750000
C        2.47030000      -0.32630000       0.07710000
O        3.47050000      -0.98370000       0.03130000
H        0.58290000       1.77000000      -0.69660000
H       -0.87220000       1.73410000       0.11660000
H       -1.27130000      -2.75680000      -0.17070000
H        0.97360000      -4.05010000      -0.14760000
H        2.45730000       0.76710000       0.23260000
