17
Properties=species:S:1:pos:R:3 gdb_11552=T pbc="F F F"
C       -0.19550000       1.23690000       0.05440000
O        0.40810000      -0.05370000      -0.04490000
C        0.61610000      -0.67190000       1.14890000
O        0.33650000      -0.19660000       2.22460000
N        1.16580000      -1.90430000       0.93320000
C        1.66470000      -2.70350000       2.00870000
C        0.67930000      -3.39070000       2.91300000
C        1.47310000      -4.19500000       1.91570000
H        0.42760000       1.91590000       0.64240000
H       -0.28870000       1.59970000      -0.97000000
H       -1.18040000       1.17270000       0.52470000
H        1.48170000      -2.09700000      -0.00420000
H        2.58440000      -2.34810000       2.46890000
H        0.93080000      -3.46510000       3.96430000
H       -0.37050000      -3.22410000       2.70720000
H        0.94790000      -4.57470000       1.04620000
H        2.27520000      -4.83080000       2.27230000
