19
Properties=species:S:1:pos:R:3 gdb_103090=T pbc="F F F"
C       -0.16780000       1.50020000       0.00760000
C       -0.03830000      -0.00320000       0.06000000
C        1.30950000      -0.70970000      -0.18740000
C        2.51000000       0.05000000      -0.34970000
C        3.52770000       0.69410000      -0.39870000
C        0.65800000      -0.69770000       1.19470000
O        1.27130000       0.06340000       2.19920000
C        0.10600000      -1.97750000       1.77960000
O        1.10940000      -2.73120000       2.42740000
H        0.66810000       1.99130000       0.50860000
H       -0.20250000       1.85640000      -1.02670000
H       -1.08870000       1.81770000       0.50730000
H       -0.88140000      -0.54580000      -0.36170000
H        1.27650000      -1.64940000      -0.73030000
H        4.42310000       1.25780000      -0.49190000
H        2.13020000       0.36330000       1.87010000
H       -0.71350000      -1.72040000       2.47150000
H       -0.31340000      -2.60550000       0.98730000
H        1.56020000      -2.10880000       3.01110000
