23
Properties=species:S:1:pos:R:3 gdb_95380=T pbc="F F F"
O       -0.28730000       1.50700000       0.89880000
C       -0.04780000       0.27280000       0.22170000
C        0.75590000      -0.69130000       1.10790000
C       -0.26570000      -1.13950000       2.17310000
C       -1.61180000      -1.21680000       1.41180000
C       -2.83120000      -0.52620000       2.05080000
C       -3.68920000      -0.11520000       0.84360000
C       -2.65580000       0.40810000      -0.17710000
C       -1.39450000      -0.45840000       0.05460000
H        0.56650000       1.89870000       1.10620000
H        0.44220000       0.46350000      -0.74440000
H        1.08510000      -1.54590000       0.50330000
H        1.65660000      -0.22780000       1.52750000
H        0.01370000      -2.08510000       2.64560000
H       -0.32470000      -0.38610000       2.96470000
H       -1.86580000      -2.26230000       1.20550000
H       -3.36390000      -1.16260000       2.76450000
H       -2.50160000       0.37180000       2.58730000
H       -4.20830000      -0.99470000       0.44100000
H       -4.45570000       0.62600000       1.09070000
H       -3.01940000       0.35170000      -1.20710000
H       -2.42330000       1.45480000       0.03300000
H       -1.26710000      -1.18010000      -0.75850000
