18
Properties=species:S:1:pos:R:3 gdb_70066=T pbc="F F F"
C       -0.07780000       1.51540000       0.03950000
C        0.05180000       0.00670000       0.03160000
C       -1.06230000      -0.72880000      -0.69330000
C       -1.14800000      -2.24240000      -0.48210000
O       -1.71240000      -2.95340000      -1.29000000
C       -0.58090000      -2.77590000       0.77040000
C        0.22410000      -2.04220000       1.55540000
C        0.68220000      -0.68300000       1.20310000
N        1.43080000      -0.47830000      -0.07310000
H        0.77830000       1.97030000       0.54320000
H       -0.11080000       1.90390000      -0.98460000
H       -0.99510000       1.82810000       0.54960000
H       -2.02830000      -0.32610000      -0.35720000
H       -1.01990000      -0.53970000      -1.77140000
H       -0.84450000      -3.79980000       1.01370000
H        0.59930000      -2.45980000       2.48670000
H        1.07030000      -0.08430000       2.02210000
H        1.46590000      -1.36570000      -0.57290000
