13
Properties=species:S:1:pos:R:3 gdb_21144=T pbc="F F F"
C       -0.06280000       1.42480000       0.00800000
N        0.00680000      -0.02570000       0.00290000
C       -1.06260000      -0.69120000       0.00920000
O       -2.30360000      -0.01270000       0.02150000
N       -3.51210000      -0.67980000       0.02790000
C       -3.44830000      -1.96210000       0.02270000
C       -2.18810000      -2.68050000       0.01100000
N       -1.05480000      -2.08040000       0.00460000
H        0.95200000       1.82750000       0.00010000
H       -0.60110000       1.81140000      -0.86740000
H       -0.58480000       1.80570000       0.89580000
H       -4.40320000      -2.47680000       0.02790000
H       -2.19530000      -3.76980000       0.00750000
