16
Properties=species:S:1:pos:R:3 gdb_10412=T pbc="F F F"
C        0.04290000       1.51210000      -0.04140000
N       -0.02240000       0.06600000       0.16540000
C       -1.34180000      -0.51760000       0.03060000
C       -1.97210000      -0.62700000      -1.40480000
O       -1.70460000      -2.03910000      -1.44840000
C       -1.30390000      -2.06840000      -0.06930000
C       -2.24410000       0.02620000       1.04800000
N       -2.98160000       0.44840000       1.83100000
H        1.08420000       1.83170000       0.04260000
H       -0.34440000       1.84900000      -1.01730000
H       -0.52880000       2.01710000       0.74250000
H        0.60520000      -0.40910000      -0.47510000
H       -3.04370000      -0.40450000      -1.46200000
H       -1.43560000      -0.07380000      -2.18410000
H       -0.30710000      -2.49920000       0.07830000
H       -2.02780000      -2.58710000       0.56850000
