18
Properties=species:S:1:pos:R:3 gdb_38013=T pbc="F F F"
C       -0.08060000       1.63200000      -0.02240000
C        1.45990000       1.56730000       0.06000000
C        2.02560000       1.39160000       1.43080000
C        1.63940000       0.21970000       1.98870000
C        2.67390000      -0.88270000       1.70930000
C        1.73960000      -1.03440000       0.44780000
C        0.51630000      -0.55700000       1.26850000
C       -0.02320000       0.11310000      -0.00440000
N        1.40250000       0.09730000      -0.55870000
H       -0.59220000       2.14790000       0.79070000
H       -0.42900000       2.01030000      -0.98610000
H        2.03820000       2.25300000      -0.55920000
H        3.04020000       1.74570000       1.60520000
H        3.71470000      -0.57540000       1.60090000
H        2.60380000      -1.80960000       2.29290000
H        1.75120000      -1.98580000      -0.09160000
H       -0.08040000      -1.23420000       1.88160000
H       -0.76170000      -0.48410000      -0.54710000
