14
Properties=species:S:1:pos:R:3 gdb_16642=T pbc="F F F"
O       -0.05580000       1.46520000      -0.01250000
C       -0.03830000       0.06790000      -0.00060000
C       -1.38890000      -0.61370000      -0.02600000
O       -2.01730000      -0.60350000      -1.31310000
C       -1.31680000      -1.78850000      -0.91640000
C        0.05050000      -1.88290000      -1.56770000
C        0.64730000      -0.51290000      -1.25090000
O        1.46590000       0.10310000      -1.88200000
H        0.61510000       1.73180000      -0.65880000
H        0.51130000      -0.31550000       0.88260000
H       -2.05820000      -0.56020000       0.82740000
H       -1.92780000      -2.67290000      -0.76260000
H        0.65990000      -2.67650000      -1.11610000
H        0.01600000      -2.05370000      -2.64640000
