15
Properties=species:S:1:pos:R:3 gdb_6421=T pbc="F F F"
C       -0.30770000       1.67170000      -0.04820000
C       -0.00830000       0.17960000      -0.07830000
C        0.85120000      -0.33040000      -1.27410000
C        1.90440000      -0.57640000      -0.21940000
N        3.07740000      -1.01570000      -0.23200000
O        1.12370000      -0.13570000       0.82960000
C       -1.17220000      -0.62980000       0.24390000
C       -2.14670000      -1.28660000       0.49370000
H        0.59700000       2.23990000      -0.28080000
H       -1.08080000       1.91480000      -0.78270000
H       -0.66560000       1.96560000       0.94160000
H        0.47930000      -1.22800000      -1.76780000
H        1.10450000       0.42700000      -2.01750000
H        3.47660000      -1.03820000       0.70800000
H       -3.00340000      -1.87260000       0.72040000
