18
Properties=species:S:1:pos:R:3 gdb_17962=T pbc="F F F"
C       -0.07940000       1.42560000       0.05490000
C        1.29890000       2.10150000      -0.06830000
C        2.09080000       1.55670000      -1.22110000
C        2.79700000       0.42120000      -1.17380000
C        3.00110000      -0.43550000      -0.00220000
C        2.14900000      -0.79930000       0.96510000
C        0.66290000      -0.58320000       1.11540000
O       -0.01840000       0.01450000       0.03750000
H       -0.58410000       1.77920000       0.96900000
H       -0.70900000       1.69400000      -0.79960000
H        1.14190000       3.18140000      -0.17160000
H        1.85280000       1.94320000       0.86500000
H        2.05830000       2.11140000      -2.15570000
H        3.35960000       0.12960000      -2.05930000
H        4.01400000      -0.82930000       0.08450000
H        2.54840000      -1.41380000       1.77250000
H        0.20310000      -1.57340000       1.24670000
H        0.46830000      -0.03770000       2.05650000
