19
Properties=species:S:1:pos:R:3 gdb_69671=T pbc="F F F"
C        0.10000000       1.59540000       0.03220000
C        0.02870000       0.09710000       0.06210000
C       -0.87690000      -0.68890000       0.96830000
C        0.61530000      -0.89280000       1.06090000
C        1.23620000      -1.70760000      -0.10230000
C        0.28950000      -2.22360000      -1.17290000
C       -0.97650000      -2.89710000      -1.05180000
C       -1.99640000      -3.53670000      -1.04510000
C        0.63250000      -0.74360000      -1.10510000
H        1.09650000       1.94530000      -0.26350000
H       -0.62170000       2.01500000      -0.68020000
H       -0.12310000       2.01720000       1.01750000
H       -1.27800000      -0.09970000       1.78960000
H       -1.54750000      -1.45760000       0.61200000
H        1.16920000      -0.68350000       1.96740000
H        2.25210000      -2.08090000      -0.06100000
H        0.88020000      -2.67700000      -1.97020000
H       -2.90870000      -4.07850000      -1.00940000
H        1.11360000      -0.26620000      -1.95090000
