14
Properties=species:S:1:pos:R:3 gdb_19802=T pbc="F F F"
N       -0.02550000       1.22970000       0.07360000
C       -0.03630000      -0.02160000       0.06480000
O        1.01520000      -0.93370000       0.05870000
C        0.09340000      -2.05720000      -0.02070000
C       -0.38420000      -2.65190000       1.32920000
N       -0.46140000      -1.53260000       2.29280000
C       -1.55980000      -1.72880000       1.33080000
C       -1.11120000      -1.09470000      -0.01540000
H        0.92810000       1.59350000       0.11690000
H        0.33510000      -2.74780000      -0.82680000
H       -0.28330000      -3.67590000       1.66530000
H       -0.75740000      -1.92510000       3.18540000
H       -2.57920000      -1.88810000       1.65610000
H       -1.84510000      -1.04470000      -0.81570000
