20
Properties=species:S:1:pos:R:3 gdb_63546=T pbc="F F F"
C       -0.10360000       1.53190000       0.00300000
C       -0.02430000       0.02270000       0.03950000
O       -1.18700000      -0.63460000      -0.39640000
C        1.29920000      -0.67570000      -0.20870000
C        0.67130000      -0.67960000       1.16230000
C        1.28580000      -0.16650000       2.46940000
N        0.89110000      -1.42940000       3.19620000
C       -0.57950000      -1.50260000       3.10270000
C        0.20550000      -1.89840000       1.91760000
H        0.80000000       1.98950000       0.41630000
H       -0.21480000       1.89190000      -1.02750000
H       -0.96520000       1.88590000       0.57840000
H       -1.27210000      -0.48770000      -1.34530000
H        1.26750000      -1.60570000      -0.76810000
H        2.18860000      -0.07310000      -0.37040000
H        2.37470000      -0.07790000       2.44040000
H        0.85990000       0.74260000       2.90980000
H       -0.99930000      -2.29310000       3.71750000
H       -1.15930000      -0.58180000       3.08340000
H        0.27950000      -2.92390000       1.57090000
