15
Properties=species:S:1:pos:R:3 gdb_2889=T pbc="F F F"
C       -0.23560000      -1.19720000      -0.49310000
C       -0.11600000      -0.03630000      -0.20390000
C        0.04990000       1.36200000       0.15290000
C       -0.45700000       1.74160000       1.57560000
C        0.57100000       2.80010000       2.05370000
O        1.46600000       3.03050000       0.96920000
C        1.52030000       1.83790000       0.21570000
H       -0.34570000      -2.22040000      -0.75450000
H       -0.46700000       1.98690000      -0.58430000
H       -1.47670000       2.12980000       1.54260000
H       -0.45540000       0.86460000       2.22610000
H        0.11730000       3.76000000       2.31450000
H        1.12290000       2.43290000       2.93150000
H        2.14320000       1.07130000       0.70460000
H        1.94590000       2.06750000      -0.76350000
