17
Properties=species:S:1:pos:R:3 gdb_84214=T pbc="F F F"
O        0.23850000       1.40420000      -0.12230000
C        0.10590000       0.00020000      -0.08430000
C        0.68280000      -0.56690000       1.23690000
C       -0.20220000      -1.48000000       1.67630000
C       -1.44340000      -1.21410000       2.49580000
C       -2.20260000      -0.39560000       1.34860000
C       -2.35570000      -1.89320000       1.52480000
C       -1.14270000      -1.98900000       0.55300000
C       -1.36170000      -0.54860000       0.02770000
H       -0.15290000       1.75390000       0.68700000
H        0.55030000      -0.35170000      -1.02390000
H        1.25280000       0.10530000       1.87230000
H       -1.60650000      -0.94750000       3.53310000
H       -2.90920000       0.38290000       1.61170000
H       -3.23430000      -2.50670000       1.66140000
H       -0.87590000      -2.83180000      -0.08010000
H       -1.97920000      -0.40130000      -0.86400000
