12
Properties=species:S:1:pos:R:3 gdb_129901=T pbc="F F F"
N        0.00510000       1.35330000       0.10450000
C       -0.01900000      -0.00090000       0.03690000
C       -1.22170000      -0.74740000       0.02500000
N       -1.19370000      -2.05810000      -0.00150000
C        0.03530000      -2.61000000      -0.01370000
N        1.19360000      -1.94850000      -0.01020000
N        1.16900000      -0.62920000       0.01100000
C        0.11740000      -4.04570000      -0.03780000
N        0.17420000      -5.20020000      -0.05680000
H        0.89730000       1.80100000      -0.03600000
H       -0.82130000       1.88610000      -0.10460000
H       -2.19380000      -0.25740000       0.03650000
