11
Properties=species:S:1:pos:R:3 gdb_3844=T pbc="F F F"
N       -0.06540000       1.37780000       0.01080000
C       -0.03380000       0.09970000       0.00360000
N        1.12520000      -0.69990000      -0.00760000
N        1.21570000      -2.04540000      -0.01550000
N        0.15330000      -2.73690000      -0.01300000
C       -1.07460000      -2.07810000      -0.00220000
C       -1.21570000      -0.73830000       0.00590000
H        0.87010000       1.78770000       0.00750000
H        2.03330000      -0.25550000      -0.01050000
H       -1.92600000      -2.74870000      -0.00090000
H       -2.18130000      -0.24850000       0.01430000
