19
Properties=species:S:1:pos:R:3 gdb_101044=T pbc="F F F"
O        0.07610000       1.40980000      -0.28810000
C        0.11140000       0.02220000      -0.04930000
C       -1.31420000      -0.51600000       0.15620000
O       -2.12650000      -0.06150000      -0.92150000
C       -1.39050000      -2.03740000       0.26860000
C       -0.40550000      -2.74190000       1.19330000
O       -0.52170000      -4.14520000       1.11980000
C       -2.64260000      -2.71450000      -0.08010000
O       -1.53140000      -2.69480000      -1.01050000
H       -0.66410000       1.54380000      -0.89510000
H        0.58590000      -0.52550000      -0.88320000
H        0.72400000      -0.13700000       0.84430000
H       -1.73150000      -0.06230000       1.06340000
H       -1.97860000      -0.69600000      -1.63910000
H        0.61780000      -2.41730000       0.95210000
H       -0.60480000      -2.45390000       2.23170000
H       -0.46580000      -4.36870000       0.18190000
H       -2.84660000      -3.68990000       0.35060000
H       -3.49820000      -2.12160000      -0.38890000
