18
Properties=species:S:1:pos:R:3 gdb_65765=T pbc="F F F"
C        0.13510000       1.49920000       0.02760000
C        0.00050000      -0.02770000      -0.02180000
C       -1.48540000      -0.45090000      -0.06280000
C       -2.28120000       0.02280000       1.13760000
O       -3.32840000       0.61470000       1.06050000
C        0.80460000      -0.64760000      -1.20780000
O        1.80080000      -1.48480000      -0.57520000
C        1.57630000      -1.36580000       0.75270000
N        0.64340000      -0.62210000       1.17670000
H        1.18930000       1.78990000       0.04970000
H       -0.33450000       1.95810000      -0.84910000
H       -0.34470000       1.90320000       0.92320000
H       -1.97220000      -0.07870000      -0.96990000
H       -1.53140000      -1.54870000      -0.07250000
H       -1.82680000      -0.22830000       2.11840000
H        0.19680000      -1.27750000      -1.86330000
H        1.32300000       0.10220000      -1.81160000
H        2.24990000      -1.94750000       1.37270000
