17
Properties=species:S:1:pos:R:3 gdb_37693=T pbc="F F F"
O       -0.05580000       1.49560000       0.04190000
C        1.40170000       1.36160000      -0.00440000
C        1.71800000       0.71760000       1.35170000
C        2.07880000      -0.77090000       1.34360000
C        2.64570000      -1.38850000       0.13240000
C        2.20940000      -0.93440000      -1.04500000
C        1.19890000       0.14530000      -0.97990000
C       -0.01820000       0.03210000       0.00890000
C        0.61740000      -0.31310000       1.36210000
H        1.92480000       2.27210000      -0.29290000
H        1.97940000       1.33200000       2.20340000
H        2.43930000      -1.14630000       2.29630000
H        3.38430000      -2.17620000       0.23320000
H        2.55650000      -1.31470000      -1.99900000
H        0.84690000       0.51160000      -1.94260000
H       -0.96390000      -0.43280000      -0.26570000
H       -0.00430000      -0.52550000       2.22210000
