23
Properties=species:S:1:pos:R:3 gdb_95754=T pbc="F F F"
C        0.05570000       1.56800000       0.09290000
C        0.04020000       0.04850000       0.04610000
C        0.62060000      -0.52040000      -1.25500000
C        0.79480000      -2.05470000      -1.19410000
C       -0.54140000      -2.80130000      -1.34830000
C        1.77790000      -2.52590000      -2.26510000
O        1.42750000      -2.39890000       0.05530000
C        0.83630000      -1.82440000       1.18860000
O        0.81390000      -0.42370000       1.14880000
H        1.07860000       1.94200000      -0.01270000
H       -0.55220000       1.98290000      -0.71700000
H       -0.34290000       1.92390000       1.04680000
H       -0.99850000      -0.30430000       0.17230000
H       -0.01500000      -0.24690000      -2.10500000
H        1.60400000      -0.06350000      -1.41400000
H       -0.94290000      -2.65120000      -2.35540000
H       -0.38500000      -3.87290000      -1.19580000
H       -1.30190000      -2.46540000      -0.63900000
H        2.75480000      -2.06050000      -2.10980000
H        1.90390000      -3.61150000      -2.21630000
H        1.41740000      -2.26210000      -3.26420000
H       -0.19080000      -2.20720000       1.33390000
H        1.45780000      -2.11140000       2.04000000
