18
Properties=species:S:1:pos:R:3 gdb_106486=T pbc="F F F"
O        0.07200000       1.39910000      -0.02610000
C        0.05950000      -0.01200000      -0.01530000
C       -1.34990000      -0.56240000      -0.03330000
C       -2.34020000      -0.51050000      -1.25940000
C       -3.09690000      -1.52280000      -0.37430000
C       -1.72740000      -2.08780000       0.05740000
O       -3.47010000      -0.70140000       0.78410000
C       -2.29760000      -0.03460000       1.02100000
N       -2.06680000       0.83890000       1.90310000
H       -0.42690000       1.67130000       0.75980000
H        0.60620000      -0.34590000      -0.90420000
H        0.58460000      -0.42040000       0.86450000
H       -2.83680000       0.43470000      -1.48410000
H       -1.90760000      -0.95480000      -2.15770000
H       -3.95480000      -2.11560000      -0.68090000
H       -1.24050000      -2.68340000      -0.71710000
H       -1.67000000      -2.58040000       1.03040000
H       -2.88830000       1.02410000       2.47960000
