14
Properties=species:S:1:pos:R:3 gdb_19393=T pbc="F F F"
O        0.03480000       0.05420000      -0.10950000
C        0.01040000       1.23830000       0.02360000
N       -1.12320000       2.15740000      -0.01910000
C       -1.01330000       3.01620000       1.20220000
C       -0.11100000       3.31650000       0.08430000
C        1.04650000       2.34050000       0.08630000
C        2.39150000       2.32850000       0.71170000
N        2.23770000       2.40840000      -0.74580000
H       -1.89530000       3.63170000       1.34530000
H       -0.61290000       2.57500000       2.11190000
H       -0.20480000       4.17240000      -0.57100000
H        2.76720000       3.23330000       1.18090000
H        2.72440000       1.39490000       1.15790000
H        2.40300000       1.50050000      -1.17720000
