11
Properties=species:S:1:pos:R:3 gdb_5708=T pbc="F F F"
C        0.06610000       1.37190000      -0.12190000
O        1.46730000       1.80920000      -0.00060000
C        1.97480000       0.72220000       0.62470000
C        1.17760000      -0.34410000       0.62950000
O       -0.00980000      -0.06350000      -0.01410000
N        1.83030000      -1.43500000       1.12360000
C        3.01020000      -0.95040000       1.40220000
O        3.18330000       0.39910000       1.10400000
H       -0.49020000       1.82780000       0.70810000
H       -0.30890000       1.68600000      -1.09550000
H        3.84960000      -1.43660000       1.86770000
