20
Properties=species:S:1:pos:R:3 gdb_97683=T pbc="F F F"
C       -0.72410000       1.06670000       0.04000000
C        0.67230000       0.43410000       0.18590000
C        1.16800000      -0.15520000      -1.05340000
C        1.55660000      -0.63190000      -2.09060000
C        2.02170000      -1.17720000      -3.33940000
C        2.37770000      -0.18050000      -4.43470000
O        1.22650000       0.44370000      -4.96020000
C        2.66140000      -2.52720000      -3.33840000
N        1.31280000      -2.36620000      -3.89750000
H       -0.71410000       1.85740000      -0.71460000
H       -1.45980000       0.31820000      -0.26650000
H       -1.04750000       1.49920000       0.99160000
H        1.38450000       1.19390000       0.53290000
H        0.64880000      -0.33380000       0.97000000
H        3.01340000       0.61410000      -4.03350000
H        2.94170000      -0.71200000      -5.21650000
H        0.64450000      -0.27260000      -5.24200000
H        3.43710000      -2.74700000      -4.06720000
H        2.77460000      -3.02680000      -2.38120000
H        0.62420000      -2.68640000      -3.22130000
