24
Properties=species:S:1:pos:R:3 gdb_14792=T pbc="F F F"
C       -0.00630000       1.57030000       0.03790000
C        0.01800000       0.03940000       0.02600000
C        0.73940000      -0.55450000       1.23990000
C        0.76380000      -2.07670000       1.22850000
O        1.44510000      -2.53100000       2.37750000
C        1.52270000      -3.93660000       2.46450000
C        2.27330000      -4.31190000       3.73490000
C        2.40580000      -5.82620000       3.91210000
H        1.00920000       1.98140000       0.03870000
H       -0.52670000       1.96860000      -0.83870000
H       -0.51600000       1.95030000       0.93010000
H       -1.01110000      -0.34220000      -0.01000000
H        0.50310000      -0.31130000      -0.89470000
H        1.77290000      -0.18860000       1.27950000
H        0.25580000      -0.21950000       2.16590000
H       -0.26570000      -2.47680000       1.20980000
H        1.26390000      -2.44560000       0.31520000
H        0.50970000      -4.37770000       2.47390000
H        2.03900000      -4.34870000       1.57890000
H        3.26420000      -3.84430000       3.70390000
H        1.74830000      -3.87300000       4.59120000
H        1.42410000      -6.30970000       3.96940000
H        2.94950000      -6.28080000       3.07650000
H        2.94800000      -6.06870000       4.83060000
