18
Properties=species:S:1:pos:R:3 gdb_61438=T pbc="F F F"
N       -0.25100000       1.84890000      -1.12860000
C       -0.19130000       0.64410000      -0.30230000
C       -1.62140000       0.26640000       0.14630000
C       -1.69410000      -0.52200000       1.44960000
N       -2.93910000      -0.61760000       1.98410000
O       -0.72640000      -1.03590000       1.99560000
C        0.46880000      -0.53180000      -1.06670000
N        0.92900000      -1.53820000      -0.28640000
O        0.55300000      -0.51570000      -2.28410000
H        0.66620000       2.28710000      -1.12730000
H       -0.37390000       1.53190000      -2.09100000
H        0.39190000       0.85440000       0.59900000
H       -2.17990000       1.20140000       0.26120000
H       -2.13530000      -0.30410000      -0.63840000
H       -3.73450000      -0.15670000       1.57870000
H       -3.05400000      -1.11920000       2.84950000
H        0.64450000      -1.56940000       0.68670000
H        1.25520000      -2.37500000      -0.74340000
