15
Properties=species:S:1:pos:R:3 gdb_49539=T pbc="F F F"
O       -0.18710000      -0.04580000      -0.14690000
C       -0.09090000       1.13350000       0.08990000
C        1.21770000       1.87170000       0.03670000
C        1.21340000       3.30280000      -0.58300000
O        0.42950000       3.78850000       0.57000000
C        1.49050000       2.93660000       1.14290000
C        2.51560000       3.65750000       0.20720000
C        3.79150000       3.06570000      -0.12330000
C        4.85910000       2.58520000      -0.39700000
H       -0.97050000       1.74840000       0.36320000
H        2.04140000       1.21140000      -0.23580000
H        0.90950000       3.62190000      -1.57960000
H        1.52060000       2.81470000       2.22520000
H        2.58010000       4.72600000       0.42350000
H        5.80130000       2.15890000      -0.64010000
