19
Properties=species:S:1:pos:R:3 gdb_61908=T pbc="F F F"
C       -0.06280000       1.51720000       0.09550000
N        0.00500000       0.06880000       0.01710000
C        0.08810000      -0.66130000       1.27410000
C       -1.28720000      -1.22140000       1.71020000
C       -1.22450000      -1.85810000       3.02150000
N       -1.14900000      -2.34770000       4.06560000
C       -0.04270000      -0.67500000      -1.13790000
C       -0.08180000       0.06470000      -2.46590000
O       -0.04870000      -1.89550000      -1.08960000
H       -0.17430000       1.95240000      -0.89550000
H       -0.91950000       1.83980000       0.70100000
H        0.84600000       1.93010000       0.55120000
H        0.78220000      -1.49500000       1.15440000
H        0.47920000       0.01260000       2.04050000
H       -2.03270000      -0.41900000       1.74380000
H       -1.61270000      -1.95140000       0.96360000
H        0.77200000       0.73810000      -2.58740000
H       -0.05920000      -0.68740000      -3.25360000
H       -0.99540000       0.65870000      -2.57190000
