19
Properties=species:S:1:pos:R:3 gdb_15253=T pbc="F F F"
C        3.63720000      -0.15910000       0.54900000
C        2.18190000       0.18970000       0.24260000
N        1.76030000      -0.51580000      -0.97230000
C        1.14270000      -1.81640000      -0.92580000
C        0.84030000      -2.57810000       0.34490000
C        0.34530000      -0.59000000      -1.36440000
C       -0.77730000      -0.08570000      -0.53550000
O       -0.79970000       0.02270000       0.67160000
H        3.74930000      -1.22180000       0.78720000
H        4.27830000       0.06340000      -0.30870000
H        3.99140000       0.41610000       1.40990000
H        1.54180000      -0.00880000       1.10780000
H        2.09480000       1.26040000       0.02730000
H        1.44910000      -2.45540000      -1.75480000
H        0.35150000      -1.95880000       1.09690000
H        0.18250000      -3.42280000       0.11630000
H        1.76420000      -2.98680000       0.76840000
H        0.17740000      -0.45150000      -2.43150000
H       -1.66340000       0.20990000      -1.14180000
