23
Properties=species:S:1:pos:R:3 gdb_60427=T pbc="F F F"
C       -0.04960000       1.55160000       0.05030000
C        0.03380000       0.02060000       0.02460000
C        0.74270000      -0.49060000      -1.23540000
C        0.73040000      -0.51560000       1.27420000
O       -0.00810000      -0.12580000       2.41610000
C        0.55680000      -0.54720000       3.61650000
C       -0.28550000      -0.07430000       4.79970000
C        0.28310000      -0.41930000       6.16650000
O       -1.31720000       0.53070000       4.65580000
H        0.95280000       1.99650000       0.01430000
H       -0.61020000       1.92710000      -0.81170000
H       -0.54200000       1.89660000       0.96200000
H       -0.98840000      -0.38000000       0.03800000
H        1.77770000      -0.13060000      -1.28030000
H        0.76740000      -1.58510000      -1.27180000
H        0.23320000      -0.13780000      -2.13730000
H        0.80650000      -1.61580000       1.22940000
H        1.76110000      -0.12100000       1.33350000
H        0.63560000      -1.64980000       3.67150000
H        1.58730000      -0.16570000       3.74660000
H        1.19180000       0.16580000       6.35090000
H       -0.45300000      -0.18620000       6.93650000
H        0.56440000      -1.47610000       6.22670000
