19
Properties=species:S:1:pos:R:3 gdb_84222=T pbc="F F F"
C       -0.16520000       1.50100000      -0.39030000
C        0.01840000       0.03490000      -0.01640000
N        0.85030000      -0.63540000      -1.06180000
C        1.63470000      -1.38960000      -0.39990000
C        3.06510000      -0.97880000      -0.15550000
C        2.39040000      -0.57490000       1.21830000
C        3.21130000      -0.46930000       2.47750000
C        0.86980000      -0.26080000       1.23200000
N        1.34660000      -1.63390000       1.05160000
H        0.80260000       1.97480000      -0.57650000
H       -0.77070000       1.59300000      -1.29570000
H       -0.66950000       2.03930000       0.41960000
H       -0.96720000      -0.43510000       0.12480000
H        3.79440000      -1.76540000       0.05930000
H        3.46210000      -0.22940000      -0.83920000
H        3.75950000       0.47840000       2.50540000
H        2.57450000      -0.52270000       3.36470000
H        3.93860000      -1.28630000       2.53220000
H        0.47050000      -0.01360000       2.21440000
