16
Properties=species:S:1:pos:R:3 gdb_62004=T pbc="F F F"
N       -0.03150000       1.33680000      -0.10280000
C        0.03350000      -0.02520000       0.15230000
O        0.95920000      -0.54420000       0.74650000
N       -1.03270000      -0.73770000      -0.35630000
C       -1.05730000      -2.17790000      -0.30190000
C       -2.47720000      -2.65210000       0.05010000
O       -3.43650000      -2.17100000      -0.88210000
C       -2.52900000      -4.12100000       0.16120000
N       -2.56190000      -5.27500000       0.20660000
H        0.62600000       1.86510000       0.45030000
H       -0.94230000       1.76370000      -0.18080000
H       -1.67200000      -0.29640000      -0.99720000
H       -0.75590000      -2.63760000      -1.25550000
H       -0.33760000      -2.49220000       0.45680000
H       -2.76370000      -2.21690000       1.01290000
H       -3.33860000      -2.67080000      -1.70150000
