20
Properties=species:S:1:pos:R:3 gdb_73700=T pbc="F F F"
C        0.00590000       1.52120000      -0.09070000
C        0.03560000       0.00430000       0.05300000
C        0.22500000      -0.60380000      -1.34130000
O       -0.24410000      -1.92540000      -1.46340000
C       -0.01250000      -2.69560000      -0.30460000
C       -0.15260000      -1.87240000       0.95840000
C        0.78390000      -0.67420000       1.23760000
C       -0.37930000      -0.17780000       2.11430000
N       -1.12730000      -0.66710000       0.86310000
H        0.78660000       1.83560000      -0.79270000
H       -0.95740000       1.83680000      -0.50510000
H        0.17230000       2.06460000       0.83990000
H       -0.33120000      -0.01940000      -2.08160000
H        1.29760000      -0.53090000      -1.60170000
H       -0.75410000      -3.50120000      -0.31890000
H        0.98890000      -3.16350000      -0.32270000
H       -0.37140000      -2.51240000       1.81900000
H        1.86100000      -0.68260000       1.44780000
H       -0.61960000      -0.76480000       3.00530000
H       -0.48900000       0.88640000       2.31710000
