17
Properties=species:S:1:pos:R:3 gdb_50690=T pbc="F F F"
O       -0.18090000       0.05280000      -0.42980000
C       -0.00640000       1.23280000      -0.26910000
C        1.35080000       1.88440000      -0.09310000
C        1.51500000       3.01500000      -1.14490000
O        1.01140000       4.17930000      -0.52850000
C        1.50190000       4.16950000       0.80400000
C        1.48690000       2.68990000       1.24650000
C        0.41600000       2.36990000       2.28110000
O       -0.22930000       3.19340000       2.87500000
H       -0.85910000       1.95050000      -0.26820000
H        2.11100000       1.10780000      -0.19140000
H        2.57970000       3.12140000      -1.40750000
H        0.94790000       2.84370000      -2.06450000
H        2.52400000       4.57320000       0.84300000
H        0.84550000       4.78630000       1.41970000
H        2.43350000       2.40280000       1.72190000
H        0.28310000       1.28390000       2.48470000
