19
Properties=species:S:1:pos:R:3 gdb_99914=T pbc="F F F"
N        0.02350000       1.53290000      -0.03950000
C       -0.00230000       0.06580000       0.00720000
C        0.61570000      -0.57340000      -1.27150000
O        1.90420000      -0.06230000      -1.54450000
C        0.85640000      -0.35600000       1.13830000
N        1.57470000      -0.71920000       1.96820000
C       -1.43150000      -0.42860000       0.18910000
C       -1.77150000      -1.70570000       0.91620000
C       -2.13500000      -0.37280000       1.51840000
H        0.87920000       1.81950000      -0.51040000
H       -0.75560000       1.85850000      -0.60410000
H        0.61320000      -1.66850000      -1.18520000
H       -0.01410000      -0.29270000      -2.12210000
H        2.51250000      -0.41720000      -0.88540000
H       -2.03730000      -0.20430000      -0.68610000
H       -2.55890000      -2.32520000       0.50240000
H       -0.96360000      -2.25900000       1.38220000
H       -1.56080000      -0.03730000       2.37460000
H       -3.17560000      -0.07000000       1.52900000
