17
Properties=species:S:1:pos:R:3 gdb_53797=T pbc="F F F"
C       -0.58490000       0.86950000      -2.19040000
C       -0.74870000      -0.59850000      -1.90870000
O       -0.39430000      -1.47640000      -2.66820000
C       -1.49410000      -0.96070000      -0.59900000
O       -2.27110000      -0.14980000      -0.13640000
C       -1.30900000      -2.33210000      -0.04350000
O       -0.21450000      -3.07660000      -0.46680000
C       -1.73150000      -2.55350000       1.38690000
C       -2.61510000      -3.07020000       0.29610000
H       -0.19940000       1.01510000      -3.19950000
H       -1.53810000       1.38430000      -2.04760000
H        0.11200000       1.30090000      -1.46160000
H       -0.19970000      -3.02880000      -1.43360000
H       -1.12290000      -3.26600000       1.93090000
H       -2.05840000      -1.67860000       1.93630000
H       -3.54640000      -2.55240000       0.09840000
H       -2.59600000      -4.13200000       0.08080000
