16
Properties=species:S:1:pos:R:3 gdb_51988=T pbc="F F F"
N        0.25840000       1.35900000      -0.17560000
C        0.03780000       0.11370000      -0.13100000
N       -1.20870000      -0.46280000       0.10040000
C       -2.45660000       0.17170000       0.15090000
O       -2.65990000       1.32470000      -0.14090000
N       -3.46030000      -0.70580000       0.54240000
C       -4.80860000      -0.21530000       0.73730000
C       -5.81740000      -0.98060000      -0.10350000
O       -6.94160000      -1.22460000       0.24480000
H        1.24770000       1.52490000      -0.35230000
H        0.79460000      -0.67260000      -0.25100000
H       -1.21190000      -1.46930000       0.13590000
H       -3.19840000      -1.53660000       1.04910000
H       -5.12270000      -0.23530000       1.78650000
H       -4.80550000       0.83040000       0.40320000
H       -5.42030000      -1.29870000      -1.09490000
