16
Properties=species:S:1:pos:R:3 gdb_47780=T pbc="F F F"
O       -0.05020000      -0.08080000       0.00230000
C       -0.06240000       1.13070000       0.04680000
N       -1.20670000       1.86910000       0.00730000
C       -1.29130000       3.31680000       0.12800000
C        0.03500000       3.92080000      -0.31060000
O        1.09400000       3.32150000       0.40930000
C        1.25830000       1.94880000       0.06510000
C        2.22510000       1.35460000       0.97730000
C        3.03310000       0.87840000       1.72530000
H       -2.05440000       1.32000000       0.02480000
H       -2.10430000       3.68830000      -0.50620000
H       -1.50580000       3.61560000       1.16330000
H        0.17410000       3.78620000      -1.39570000
H        0.06570000       4.98960000      -0.08570000
H        1.64760000       1.87460000      -0.96690000
H        3.74140000       0.44760000       2.38900000
