12
Properties=species:S:1:pos:R:3 gdb_25432=T pbc="F F F"
O       -0.04550000      -0.00570000      -0.00050000
C       -0.01080000       1.20300000       0.00820000
C        1.23880000       1.97760000      -0.00010000
C        2.50460000       1.46940000      -0.01850000
O        3.41970000       2.46320000      -0.02100000
C        2.75130000       3.63990000      -0.00440000
C        1.40550000       3.41640000       0.00860000
C        0.38460000       4.39870000       0.02740000
N       -0.46100000       5.18920000       0.04300000
H       -0.93710000       1.81290000       0.02330000
H        2.88210000       0.46100000      -0.03040000
H        3.34850000       4.53590000      -0.00420000
