19
Properties=species:S:1:pos:R:3 gdb_41396=T pbc="F F F"
C        0.01650000       1.57090000       0.05860000
C        1.56900000       1.50310000      -0.08790000
C        1.49990000      -0.00310000       0.18800000
O        2.35230000      -0.93140000      -0.48810000
C        2.62890000      -1.65570000       0.73330000
C        1.74720000      -0.68220000       1.55820000
C        0.38250000      -1.14400000       1.99730000
C       -0.58090000      -0.77200000       1.14710000
C       -0.03860000       0.00380000      -0.02290000
H       -0.30730000       1.94680000       1.03160000
H       -0.51490000       2.11580000      -0.72370000
H        1.88890000       1.68530000      -1.11820000
H        2.17870000       2.11620000       0.58170000
H        2.27290000      -2.69130000       0.68750000
H        3.69930000      -1.64730000       0.97120000
H        2.29080000      -0.11540000       2.31910000
H        0.22100000      -1.70970000       2.90910000
H       -1.63600000      -0.98960000       1.27940000
H       -0.37240000      -0.35860000      -0.99900000
