20
Properties=species:S:1:pos:R:3 gdb_109125=T pbc="F F F"
C       -0.29910000       1.51610000       0.05860000
C        0.05210000       0.01730000       0.05150000
C        0.82080000      -0.41520000      -1.16850000
C        2.05970000      -0.90160000      -1.14840000
C        2.75950000      -1.26390000      -2.42920000
C        1.80090000      -1.75440000      -3.49130000
N        2.16450000      -2.60580000      -4.35600000
O        0.53460000      -1.25700000      -3.47390000
C        0.14800000      -0.26790000      -2.51060000
H        0.60670000       2.12940000       0.02200000
H       -0.92360000       1.79020000      -0.79820000
H       -0.85180000       1.77910000       0.96540000
H        0.63750000      -0.22470000       0.94500000
H       -0.87880000      -0.56350000       0.11920000
H        2.59620000      -1.03230000      -0.21280000
H        3.29260000      -0.38580000      -2.82640000
H        3.51690000      -2.03680000      -2.28970000
H        1.39100000      -2.80750000      -4.99320000
H       -0.93800000      -0.37310000      -2.41910000
H        0.33880000       0.72920000      -2.93630000
