21
Properties=species:S:1:pos:R:3 gdb_107006=T pbc="F F F"
C       -0.12630000       1.58720000      -0.02750000
C        0.03600000       0.07670000      -0.14030000
C        0.78880000      -0.51120000      -1.34090000
C        2.24070000      -0.12240000      -1.31660000
C        1.77880000      -1.22970000      -0.41110000
C        2.32700000      -2.61890000      -0.47360000
O        1.31200000      -3.52830000      -0.05570000
C        1.07550000      -0.64340000       0.80750000
O        1.92430000       0.15680000       1.60920000
H        0.83510000       2.10410000      -0.07900000
H       -0.76280000       1.97110000      -0.83200000
H       -0.59730000       1.86170000       0.92390000
H       -0.93980000      -0.40820000      -0.03320000
H        0.32330000      -0.90610000      -2.23640000
H        2.81630000      -0.44910000      -2.17760000
H        2.57100000       0.82100000      -0.89470000
H        2.65850000      -2.83880000      -1.50160000
H        3.21200000      -2.69690000       0.17860000
H        1.72150000      -4.38680000       0.08530000
H        0.59650000      -1.43000000       1.40090000
H        1.42220000       0.45370000       2.37460000
