16
Properties=species:S:1:pos:R:3 gdb_32235=T pbc="F F F"
C        0.04980000       1.46010000      -0.10650000
N       -0.13990000       0.04040000       0.10600000
C        0.55740000      -0.63510000       1.08470000
C        1.25550000      -0.04900000       2.13790000
N        1.87860000      -0.75920000       3.09420000
C        1.81440000      -2.07490000       2.98850000
N        1.19150000      -2.76030000       2.01460000
C        0.58270000      -2.04850000       1.09310000
O       -0.05200000      -2.68630000       0.08390000
H        1.10080000       1.73560000      -0.28580000
H       -0.54180000       1.76870000      -0.97050000
H       -0.30470000       2.03120000       0.75900000
H       -0.33890000      -0.51190000      -0.71270000
H        1.31680000       1.03160000       2.22370000
H        2.31130000      -2.66630000       3.75180000
H        0.07760000      -3.63270000       0.23790000
