18
Properties=species:S:1:pos:R:3 gdb_67279=T pbc="F F F"
C       -0.07930000       1.54050000       0.02450000
C        0.00780000       0.04700000       0.01420000
C        0.76370000      -0.87790000      -0.97890000
O        1.63940000      -1.36520000       0.06350000
C        0.68660000      -0.89640000       1.04490000
C       -0.62140000      -1.76050000       1.00840000
C       -0.50580000      -2.88510000      -0.03220000
C       -0.54260000      -1.74160000      -1.05790000
N       -1.24430000      -0.82570000      -0.04150000
H        0.91960000       1.98810000       0.06670000
H       -0.58430000       1.90460000      -0.87650000
H       -0.65160000       1.88840000       0.89110000
H        1.29800000      -0.60010000      -1.88880000
H        1.14980000      -0.63570000       1.99770000
H       -1.15460000      -1.90670000       1.94950000
H        0.37870000      -3.52330000      -0.00430000
H       -1.41740000      -3.48460000      -0.07250000
H       -1.00250000      -1.87020000      -2.03930000
