22
Properties=species:S:1:pos:R:3 gdb_58573=T pbc="F F F"
C       -1.38190000      -0.65910000      -0.15570000
C       -0.00720000      -0.00700000       0.05980000
C       -0.12310000       1.52300000       0.03440000
C        0.71800000      -0.53320000       1.32870000
C       -0.02430000      -0.21060000       2.63420000
C        1.03550000      -2.05820000       1.21830000
O        2.46460000      -2.15450000       1.42950000
C        2.89870000      -0.87340000       1.47020000
N        2.07080000       0.08090000       1.40750000
H       -2.09830000      -0.34910000       0.61230000
H       -1.79430000      -0.35830000      -1.12390000
H       -1.33550000      -1.75350000      -0.14720000
H        0.63770000      -0.29990000      -0.78060000
H       -0.82700000       1.88610000       0.79130000
H        0.84650000       1.98990000       0.21750000
H       -0.49420000       1.85780000      -0.93990000
H       -1.02720000      -0.64830000       2.64340000
H        0.52920000      -0.61480000       3.48720000
H       -0.11160000       0.86860000       2.77720000
H        0.53890000      -2.66770000       1.97710000
H        0.81700000      -2.47020000       0.22810000
H        3.97480000      -0.77090000       1.56310000
