20
Properties=species:S:1:pos:R:3 gdb_99052=T pbc="F F F"
C       -0.22650000       1.52610000       0.09240000
C        0.13910000       0.04530000       0.02600000
C        0.70720000      -0.38400000      -1.31750000
O        0.95460000       0.40670000      -2.19990000
C        0.93210000      -1.88410000      -1.50140000
C        1.74950000      -2.21420000      -2.76640000
C        3.23940000      -1.84720000      -2.62090000
C        1.59610000      -3.63150000      -3.10670000
N        1.47820000      -4.75250000      -3.36290000
H        0.64300000       2.15110000      -0.12400000
H       -0.99590000       1.77270000      -0.64390000
H       -0.60360000       1.78490000       1.08540000
H        0.88810000      -0.21090000       0.78930000
H       -0.72400000      -0.59450000       0.25430000
H        1.40850000      -2.30290000      -0.60710000
H       -0.05880000      -2.35340000      -1.55460000
H        1.32960000      -1.62420000      -3.58870000
H        3.78770000      -2.08030000      -3.53660000
H        3.33110000      -0.77730000      -2.42510000
H        3.69870000      -2.40370000      -1.79840000
