19
Properties=species:S:1:pos:R:3 gdb_64868=T pbc="F F F"
C       -0.21240000       1.57880000      -0.01410000
C       -0.02560000       0.05420000      -0.00210000
C        1.17340000      -0.40710000      -0.90190000
C        2.09230000      -0.45600000       0.35680000
C        0.80420000      -0.43560000       1.23530000
C        2.96560000      -1.67130000       0.49130000
O        4.15200000      -1.65970000       0.69570000
C       -1.28920000      -0.62650000      -0.22950000
C       -2.33090000      -1.19820000      -0.41700000
H        0.74150000       2.08790000       0.15740000
H       -0.61050000       1.91060000      -0.97750000
H       -0.91200000       1.88730000       0.76820000
H        1.00070000      -1.40270000      -1.31900000
H        1.47200000       0.26950000      -1.70530000
H        2.70720000       0.43750000       0.47490000
H        0.81310000       0.21860000       2.10950000
H        0.50610000      -1.44080000       1.54440000
H        2.40980000      -2.63490000       0.38300000
H       -3.25100000      -1.70190000      -0.58260000
