16
Properties=species:S:1:pos:R:3 gdb_126877=T pbc="F F F"
C       -0.84300000       0.75070000      -0.34830000
C        0.47570000       0.29590000       0.28540000
N        0.37490000      -1.05870000       0.82090000
C        0.08580000      -1.21400000       2.03390000
N       -0.05300000      -2.43080000       2.69880000
C       -0.33450000      -2.15010000       3.99730000
O       -0.50230000      -3.13990000       4.87100000
N       -0.41660000      -0.89020000       4.26180000
O       -0.15670000      -0.25940000       2.99510000
H       -1.63190000       0.82270000       0.40680000
H       -0.72680000       1.73400000      -0.81580000
H       -1.16730000       0.03930000      -1.11360000
H        1.25800000       0.28380000      -0.48160000
H        0.78490000       1.01930000       1.05190000
H        0.09380000      -3.33250000       2.28130000
H       -0.69440000      -2.74180000       5.73140000
