17
Properties=species:S:1:pos:R:3 gdb_11920=T pbc="F F F"
C        0.00350000       1.54420000       0.05770000
C        0.04160000       0.04570000       0.00180000
C       -0.84210000      -0.82880000       0.83440000
C        0.65780000      -0.95870000       1.01800000
C        1.24850000      -1.78650000      -0.13500000
C        0.62980000      -0.77870000      -1.15510000
C        1.29590000      -0.69440000       2.26340000
N        1.82940000      -0.47020000       3.26710000
H        0.96360000       1.97760000      -0.24150000
H       -0.76610000       1.93710000      -0.61740000
H       -0.22610000       1.89750000       1.06750000
H       -1.36110000      -0.33160000       1.64710000
H       -1.38480000      -1.66330000       0.39560000
H        2.33910000      -1.77680000      -0.14580000
H        0.90230000      -2.82280000      -0.18570000
H       -0.09870000      -1.17940000      -1.86660000
H        1.39700000      -0.23430000      -1.70980000
