18
Properties=species:S:1:pos:R:3 gdb_76531=T pbc="F F F"
C       -0.08060000       1.49040000      -0.14880000
C        0.06770000      -0.01270000      -0.08930000
C        1.42730000      -0.66850000      -0.06460000
O        2.58470000       0.10430000       0.04960000
C        0.56980000      -0.65990000       1.18360000
N        0.92660000       0.03810000       2.42740000
C        0.59460000      -1.17650000       3.23960000
C        0.07330000      -1.84690000       1.95150000
O       -0.48910000      -2.86710000       1.67650000
H        0.70410000       1.98590000       0.42620000
H       -0.03460000       1.84930000      -1.18320000
H       -1.04260000       1.79890000       0.27020000
H       -0.69920000      -0.58770000      -0.60380000
H        1.55340000      -1.62060000      -0.57980000
H        2.70080000       0.60840000      -0.76280000
H        1.91500000       0.27190000       2.44850000
H        1.45330000      -1.70060000       3.67580000
H       -0.15080000      -0.99760000       4.02070000
