17
Properties=species:S:1:pos:R:3 gdb_106031=T pbc="F F F"
O        0.08220000       1.43450000       0.28390000
C       -0.00400000       0.05170000      -0.02420000
C       -1.42410000      -0.43090000       0.03710000
C       -2.12060000      -1.05300000       1.25790000
C       -3.63190000      -0.85190000       1.09810000
C       -3.40800000      -1.17920000      -0.40810000
C       -2.03100000      -1.85690000       0.00060000
C       -2.52160000      -0.01760000      -0.88810000
O       -2.56470000       0.76680000      -1.79910000
H       -0.41700000       1.90160000      -0.39610000
H        0.41160000      -0.15770000      -1.02160000
H        0.62060000      -0.47170000       0.70760000
H       -1.55160000      -1.17770000       2.17120000
H       -4.19130000      -1.64250000       1.60500000
H       -4.06330000       0.12560000       1.33910000
H       -4.18810000      -1.59620000      -1.03860000
H       -1.54820000      -2.77790000      -0.28780000
