21
Properties=species:S:1:pos:R:3 gdb_99999=T pbc="F F F"
C       -0.06610000       1.55280000      -0.09710000
C       -0.02700000       0.01460000       0.00940000
C        0.65190000      -0.51360000      -1.24600000
O        0.08480000      -1.10670000      -2.12840000
C        0.70740000      -0.50690000       1.27180000
C        0.78660000      -2.04420000       1.25750000
O        2.01990000       0.05170000       1.24830000
C        0.00960000      -0.03850000       2.56000000
O        0.85720000      -0.42960000       3.63980000
H        0.93920000       1.96820000       0.00110000
H       -0.48190000       1.85690000      -1.06230000
H       -0.69630000       1.99210000       0.68040000
H       -1.04600000      -0.38690000       0.00420000
H        1.73600000      -0.27770000      -1.31150000
H        1.39680000      -2.38740000       0.41820000
H        1.23970000      -2.40470000       2.18400000
H       -0.20870000      -2.49090000       1.16390000
H        2.36610000      -0.06230000       2.14290000
H       -0.10870000       1.05090000       2.54620000
H       -0.98480000      -0.49990000       2.64710000
H        0.60290000       0.06210000       4.42500000
