23
Properties=species:S:1:pos:R:3 gdb_116316=T pbc="F F F"
C       -0.10430000       1.57380000       0.04320000
C        0.01880000       0.04590000       0.00740000
C        0.76450000      -0.51000000      -1.21770000
C        2.23540000      -0.06410000      -1.27660000
O        2.91700000      -0.67160000      -2.35610000
C        3.12110000      -2.05910000      -2.14730000
C        1.84580000      -2.82390000      -1.79870000
C        1.40780000      -2.93310000      -0.35630000
C        0.66030000      -2.02690000      -1.30170000
H        0.87060000       2.06320000       0.13340000
H       -0.58250000       1.95380000      -0.86670000
H       -0.71040000       1.89660000       0.89540000
H        0.51560000      -0.30710000       0.92060000
H       -0.98620000      -0.39470000       0.02590000
H        0.28730000      -0.10740000      -2.12250000
H        2.30360000       1.01400000      -1.44260000
H        2.74740000      -0.28510000      -0.32240000
H        3.54160000      -2.43720000      -3.08320000
H        3.88120000      -2.20260000      -1.36010000
H        1.63300000      -3.67460000      -2.43790000
H        0.92100000      -3.84550000      -0.02940000
H        2.05350000      -2.48610000       0.39430000
H       -0.31890000      -2.38180000      -1.61240000
