22
Properties=species:S:1:pos:R:3 gdb_60024=T pbc="F F F"
C       -1.37470000       1.48940000      -1.57620000
C       -1.57580000      -0.01260000      -1.42660000
O       -0.55380000      -0.67680000      -2.14670000
C       -1.53400000      -0.45560000       0.04300000
N       -1.54880000      -1.91980000       0.14810000
C       -0.89180000      -2.40860000       1.35740000
C       -2.87670000      -2.49850000       0.00060000
C       -2.80920000      -3.96220000      -0.40830000
O       -3.62080000      -4.79330000      -0.09980000
H       -1.37630000       1.76330000      -2.63430000
H       -2.17410000       2.04390000      -1.07420000
H       -0.41330000       1.79110000      -1.14850000
H       -2.56360000      -0.27090000      -1.85100000
H       -0.51700000      -1.56540000      -1.76330000
H       -0.58850000      -0.10540000       0.47020000
H       -2.35060000       0.01430000       0.61810000
H       -1.40690000      -2.09370000       2.28220000
H       -0.86180000      -3.50310000       1.34990000
H        0.13770000      -2.04320000       1.39300000
H       -3.50410000      -2.40740000       0.90370000
H       -3.40410000      -1.98300000      -0.81290000
H       -1.93440000      -4.20080000      -1.05650000
