17
Properties=species:S:1:pos:R:3 gdb_16619=T pbc="F F F"
C       -0.04740000       1.50820000       0.05340000
C       -0.08130000       0.01750000      -0.02070000
C       -0.07530000      -0.76290000      -1.10610000
C       -0.00140000      -2.20670000      -0.73030000
N        1.25650000      -2.53980000       0.01520000
C       -0.00140000      -2.25740000       0.74670000
C       -0.01210000      -0.81600000       1.26490000
O        1.13520000      -0.50670000       2.04140000
H        0.81820000       1.83450000       0.64060000
H        0.00510000       1.96710000      -0.93730000
H       -0.93600000       1.89800000       0.56710000
H       -0.06850000      -0.41510000      -2.13310000
H       -0.45280000      -2.97980000      -1.34220000
H        1.39890000      -3.54850000      -0.00340000
H       -0.47100000      -3.05150000       1.31540000
H       -0.87320000      -0.62560000       1.91710000
H        1.87290000      -0.89400000       1.54780000
