18
Properties=species:S:1:pos:R:3 gdb_77171=T pbc="F F F"
N        0.28150000       1.18590000       0.36700000
C        0.06820000      -0.16270000      -0.10120000
C       -1.39900000      -0.65310000      -0.24500000
O       -1.11730000      -1.07240000      -1.62540000
C        0.15350000      -0.52020000      -1.58300000
N        0.99890000      -0.34760000      -2.49120000
C       -1.88150000      -1.78260000       0.61970000
C       -2.75230000      -2.84470000       0.06420000
N       -1.35400000      -3.14090000       0.43710000
H        1.27480000       1.36410000       0.47430000
H       -0.05620000       1.85710000      -0.31710000
H        0.65830000      -0.85230000       0.50940000
H       -2.11420000       0.17740000      -0.24830000
H        0.66280000      -0.68890000      -3.39370000
H       -2.00910000      -1.48960000       1.66060000
H       -3.50590000      -3.31170000       0.69130000
H       -2.99650000      -2.79200000      -0.99280000
H       -0.79920000      -3.16520000      -0.41690000
