19
Properties=species:S:1:pos:R:3 gdb_34599=T pbc="F F F"
C        0.21330000      -1.02940000       0.66890000
C        0.07260000       0.11030000       0.30260000
C       -0.03490000       1.45460000      -0.15560000
C       -1.15490000       2.16730000       0.04870000
C       -1.36970000       3.57340000      -0.42970000
C       -0.09300000       4.30400000      -0.80410000
C        1.04300000       4.38510000       0.18710000
C        1.17240000       3.51600000      -1.04000000
C        1.16210000       2.00380000      -0.91040000
H        0.31920000      -2.03340000       0.99710000
H       -1.98040000       1.69780000       0.57590000
H       -2.04090000       3.54540000      -1.30220000
H       -1.92110000       4.13760000       0.33570000
H       -0.24600000       5.17820000      -1.42960000
H        1.62290000       5.30030000       0.23410000
H        0.91130000       3.88840000       1.14340000
H        1.83550000       3.88460000      -1.81700000
H        2.08160000       1.65590000      -0.42340000
H        1.17140000       1.55130000      -1.91190000
