13
Properties=species:S:1:pos:R:3 gdb_25370=T pbc="F F F"
O       -0.20490000       0.02690000      -0.00090000
C       -0.04600000       1.22750000       0.00890000
C        1.25030000       1.88370000       0.00010000
C        2.54550000       1.38560000      -0.01910000
N        3.45700000       2.38720000      -0.02050000
C        2.74600000       3.51650000      -0.00220000
N        1.40890000       3.25430000       0.01070000
C        3.25660000       4.83310000       0.00390000
C        3.66680000       5.96430000       0.00940000
H       -0.91570000       1.92530000       0.02430000
H        2.83580000       0.34620000      -0.03180000
H        0.67550000       3.94540000       0.02530000
H        4.04350000       6.95770000       0.01410000
