15
Properties=species:S:1:pos:R:3 gdb_123885=T pbc="F F F"
C       -0.16460000       1.53650000       0.04320000
C        1.37360000       1.57100000      -0.17200000
N        1.42490000       0.16410000       0.25750000
C       -0.04110000       0.00100000       0.25270000
C        2.33210000      -0.75180000      -0.14220000
N        3.52800000      -0.49970000      -0.61910000
O        4.05330000      -1.75280000      -0.82470000
N        3.12830000      -2.69950000      -0.46760000
N        2.08990000      -2.11780000      -0.05500000
H       -0.49370000       2.07370000       0.93310000
H       -0.76770000       1.84850000      -0.80870000
H        1.68710000       1.70830000      -1.21380000
H        1.95010000       2.24920000       0.46280000
H       -0.44380000      -0.40640000       1.18350000
H       -0.40540000      -0.60210000      -0.58650000
