20
Properties=species:S:1:pos:R:3 gdb_93277=T pbc="F F F"
C       -0.28290000       1.51710000      -0.03160000
C        0.02550000       0.03070000       0.06390000
N        0.93110000      -0.41590000      -1.01270000
C        1.36240000      -1.77680000      -0.69320000
C        1.30820000      -1.80540000       0.82860000
O        1.54020000      -2.73670000       1.55760000
C        0.78450000      -0.44820000       1.32120000
C        1.97640000       0.44270000       1.70790000
O       -0.08540000      -0.63060000       2.41650000
H        0.63370000       2.11140000      -0.06140000
H       -0.85360000       1.73270000      -0.94150000
H       -0.88710000       1.83410000       0.82360000
H       -0.92900000      -0.52710000       0.06800000
H        0.49590000      -0.34830000      -1.92440000
H        0.69480000      -2.57720000      -1.05680000
H        2.36890000      -1.99800000      -1.06610000
H        2.60740000       0.66680000       0.84350000
H        1.60640000       1.37900000       2.13330000
H        2.58110000      -0.06270000       2.46700000
H        0.23260000      -1.41680000       2.88320000
