17
Properties=species:S:1:pos:R:3 gdb_32101=T pbc="F F F"
C       -0.04550000       1.53950000       0.04810000
C       -0.00080000       0.00130000       0.05220000
C        0.75140000      -0.52470000       1.24620000
N        2.05790000      -0.75910000       1.09940000
C        2.70470000      -1.19390000       2.18960000
C        2.09020000      -1.40010000       3.41040000
C        0.72210000      -1.11850000       3.44370000
O        0.03680000      -1.28770000       4.58480000
N        0.05410000      -0.68580000       2.38130000
H        0.96560000       1.95610000       0.01230000
H       -0.59720000       1.90650000      -0.82220000
H       -0.53890000       1.91580000       0.94940000
H       -1.01960000      -0.39630000       0.07560000
H        0.49610000      -0.35740000      -0.85280000
H        3.76860000      -1.38760000       2.07150000
H        2.61730000      -1.75550000       4.28550000
H       -0.87860000      -1.04060000       4.38750000
