20
Properties=species:S:1:pos:R:3 gdb_115303=T pbc="F F F"
C        0.04790000       1.38510000       0.09350000
O       -0.05340000      -0.01580000      -0.05220000
C        0.62950000      -0.54610000      -1.17040000
C        2.11220000      -0.77600000      -0.86980000
O        2.75790000      -1.41710000      -1.97270000
C        2.04760000      -2.41380000      -2.58400000
C        2.92420000      -3.16650000      -3.54080000
N        0.82630000      -2.70620000      -2.41390000
C        0.01000000      -1.89800000      -1.51640000
H        1.07890000       1.71950000       0.27910000
H       -0.33090000       1.91170000      -0.79550000
H       -0.56490000       1.66180000       0.95470000
H        0.54310000       0.13410000      -2.03280000
H        2.65790000       0.15540000      -0.70250000
H        2.20390000      -1.40090000       0.02830000
H        3.75630000      -3.63590000      -3.00600000
H        2.33770000      -3.92830000      -4.05230000
H        3.35940000      -2.47960000      -4.27380000
H       -0.16600000      -2.44920000      -0.58320000
H       -0.97310000      -1.75580000      -1.97760000
