13
Properties=species:S:1:pos:R:3 gdb_43551=T pbc="F F F"
O        0.02330000       0.07470000      -0.62700000
C        0.05220000       1.15380000      -0.13780000
O       -0.98090000       1.85080000       0.47090000
C       -0.15170000       3.04370000       0.66610000
C       -0.05100000       3.43250000       2.06640000
N        0.06330000       3.76020000       3.16800000
C        1.03420000       2.27780000       0.06010000
C        2.46830000       2.18080000       0.41530000
N        2.03640000       2.78100000      -0.85150000
H       -0.51740000       3.87170000       0.05500000
H        2.87540000       2.88010000       1.13940000
H        2.90970000       1.18810000       0.41370000
H        2.15440000       2.13700000      -1.63160000
