16
Properties=species:S:1:pos:R:3 gdb_27324=T pbc="F F F"
N        0.07480000       1.41040000       0.11920000
C        0.00890000       0.01540000       0.04220000
C       -1.15000000      -0.71370000       0.03280000
C       -1.14540000      -2.15180000       0.04040000
O       -2.15300000      -2.86680000       0.00800000
C        0.19980000      -2.78040000       0.04550000
N        0.18060000      -4.16440000       0.09060000
C        1.31110000      -2.00440000       0.03850000
N        1.21160000      -0.61860000       0.02740000
H        0.69380000       1.82810000      -0.56590000
H       -0.83930000       1.83790000       0.06100000
H       -2.10740000      -0.20840000      -0.01210000
H       -0.75650000      -4.49340000      -0.12200000
H        0.90960000      -4.64720000      -0.41180000
H        2.32070000      -2.39510000       0.03460000
H        2.03850000      -0.07470000       0.21120000
