25
Properties=species:S:1:pos:R:3 gdb_116354=T pbc="F F F"
C       -1.69860000      -0.21090000       0.58580000
C       -0.22620000       0.13800000       0.34170000
C        0.73060000      -0.30550000       1.47220000
C        0.64900000      -1.82640000       1.70650000
C        1.78210000      -2.34230000       2.59510000
C        3.13800000      -2.06340000       1.93940000
C        3.21470000      -0.65020000       1.42710000
C        2.16480000       0.15370000       1.22820000
C        2.37040000       1.58480000       0.79460000
H       -2.04840000       0.19880000       1.54070000
H       -2.33070000       0.20690000      -0.20410000
H       -1.87070000      -1.29090000       0.60540000
H        0.10790000      -0.31240000      -0.60300000
H       -0.14840000       1.22170000       0.20730000
H        0.38410000       0.20050000       2.39030000
H       -0.32100000      -2.08150000       2.14470000
H        0.69620000      -2.33760000       0.73400000
H        1.74020000      -1.83660000       3.56860000
H        1.66060000      -3.41360000       2.78960000
H        3.95330000      -2.24040000       2.65220000
H        3.31150000      -2.77350000       1.11600000
H        4.21240000      -0.25990000       1.23170000
H        3.43180000       1.84660000       0.79920000
H        1.98450000       1.77510000      -0.21360000
H        1.84830000       2.28150000       1.46380000
