18
Properties=species:S:1:pos:R:3 gdb_66515=T pbc="F F F"
C        0.12670000       1.51520000      -0.05630000
C        0.01260000       0.03050000       0.05780000
C        0.36610000      -1.09420000      -0.86800000
C        0.85190000      -1.02600000       0.71470000
C       -0.31090000      -1.83610000       1.21070000
C       -0.53490000      -3.12580000       0.88820000
C       -1.25510000      -3.07130000      -0.46560000
N       -1.00770000      -1.65080000      -0.93740000
C       -1.20530000      -0.89870000       0.33800000
H        1.14340000       1.80910000      -0.33840000
H       -0.55830000       1.90580000      -0.81660000
H       -0.10740000       2.00500000       0.89550000
H        1.09230000      -1.16570000      -1.66870000
H        1.91270000      -1.03850000       0.93390000
H        0.15990000      -3.92910000       1.11470000
H       -0.82710000      -3.82100000      -1.14020000
H       -2.34370000      -3.20480000      -0.47050000
H       -2.21230000      -0.60070000       0.63020000
