19
Properties=species:S:1:pos:R:3 gdb_55936=T pbc="F F F"
N       -0.03480000       1.39140000       0.05650000
C        0.07610000       0.00290000       0.00710000
O        1.14940000      -0.57000000       0.04610000
N       -1.13410000      -0.64940000      -0.06370000
C       -1.21660000      -2.08700000       0.03310000
C       -1.55250000      -2.78900000       1.40290000
C       -2.71660000      -3.50720000       0.71120000
C       -3.68990000      -2.49200000       0.19200000
C       -2.43330000      -2.76070000      -0.59770000
H        0.84970000       1.84450000      -0.11900000
H       -0.80680000       1.81160000      -0.44040000
H       -1.96920000      -0.12380000       0.14140000
H       -0.27770000      -2.47530000      -0.35960000
H       -0.74600000      -3.44370000       1.73760000
H       -1.83290000      -2.12510000       2.22750000
H       -2.98340000      -4.54780000       0.84250000
H       -4.59650000      -2.88640000      -0.25540000
H       -3.84040000      -1.55610000       0.72810000
H       -2.48220000      -3.12100000      -1.61860000
