25
Properties=species:S:1:pos:R:3 gdb_58421=T pbc="F F F"
C       -0.51630000       0.57960000      -2.70680000
C       -0.28540000      -0.40340000      -1.55480000
O        0.69960000       0.09760000      -0.64660000
C       -1.56530000      -0.80300000      -0.82180000
C       -2.30310000       0.34920000      -0.15720000
C       -2.42200000      -1.94410000      -1.35110000
C       -2.15350000      -2.69670000      -2.63910000
C       -1.60120000      -2.13220000      -0.08790000
C       -0.41860000      -3.07460000       0.01140000
H        0.43170000       0.79190000      -3.20890000
H       -1.21730000       0.17080000      -3.44120000
H       -0.92630000       1.53070000      -2.34870000
H        0.18240000      -1.29910000      -1.96950000
H        0.39410000       0.95180000      -0.32400000
H       -2.65690000       1.09130000      -0.88160000
H       -3.17890000      -0.01670000       0.38670000
H       -1.66860000       0.86500000       0.57440000
H       -3.48750000      -1.80390000      -1.17740000
H       -1.09170000      -2.87290000      -2.82410000
H       -2.64410000      -3.67650000      -2.61780000
H       -2.55030000      -2.15220000      -3.50360000
H       -2.18200000      -2.10660000       0.83220000
H        0.10830000      -3.20720000      -0.93620000
H        0.31150000      -2.70480000       0.73850000
H       -0.74790000      -4.06730000       0.33790000
