16
Properties=species:S:1:pos:R:3 gdb_47617=T pbc="F F F"
N       -0.04180000       1.26890000       0.28580000
C       -0.00690000       0.03380000       0.00150000
O        1.17440000      -0.61040000      -0.23350000
C        1.13280000      -1.85610000      -0.93870000
C        0.14650000      -2.82510000      -0.30170000
C       -1.16700000      -2.13180000      -0.10750000
C       -1.24500000      -0.79070000      -0.00530000
C       -2.49150000      -0.12270000       0.15360000
C       -3.56530000       0.40590000       0.27630000
H        0.90420000       1.65510000       0.25830000
H        0.85270000      -1.66980000      -1.98410000
H        2.15660000      -2.23510000      -0.91710000
H        0.02900000      -3.70620000      -0.94300000
H        0.53180000      -3.19080000       0.66090000
H       -2.07280000      -2.72540000      -0.04300000
H       -4.50080000       0.89540000       0.38880000
