15
Properties=species:S:1:pos:R:3 gdb_2164=T pbc="F F F"
C       -0.05300000       1.39860000       0.03010000
N       -0.02080000      -0.03810000       0.15800000
C       -1.18730000      -0.86100000      -0.09850000
C       -0.61400000      -2.28380000       0.06080000
N        0.77710000      -2.06950000      -0.31130000
C        1.14750000      -0.74780000      -0.07590000
O        2.27490000      -0.30150000      -0.08390000
H        0.97100000       1.76210000       0.13150000
H       -0.44810000       1.71620000      -0.94680000
H       -0.67480000       1.84540000       0.81380000
H       -1.99680000      -0.65550000       0.60910000
H       -1.57650000      -0.70010000      -1.11710000
H       -0.72000000      -2.62930000       1.09920000
H       -1.10840000      -3.00490000      -0.59550000
H        1.47510000      -2.76580000      -0.10180000
