17
Properties=species:S:1:pos:R:3 gdb_18395=T pbc="F F F"
C        0.27670000       1.27070000      -0.50830000
O        0.54170000       2.26410000       0.45840000
C        1.67990000       2.05370000       1.25330000
C        1.48800000       1.08320000       2.40360000
N        0.20260000       1.11200000       3.10240000
C        0.60670000      -0.11550000       2.35940000
C       -0.19660000      -0.57460000       1.19870000
C       -0.32940000      -0.01190000      -0.00210000
H       -0.42260000       1.73140000      -1.21580000
H        1.19590000       1.04430000      -1.08130000
H        2.53290000       1.71590000       0.63880000
H        1.94080000       3.03480000       1.66860000
H        2.39240000       0.98200000       3.00680000
H        0.33710000       0.96890000       4.10050000
H        0.93720000      -0.94430000       2.98460000
H       -0.72480000      -1.51050000       1.37140000
H       -0.94880000      -0.52440000      -0.73670000
