19
Properties=species:S:1:pos:R:3 gdb_65107=T pbc="F F F"
O        0.34320000       0.91350000      -1.15650000
C        0.13310000      -0.09330000      -0.19940000
C        1.30320000      -0.99870000       0.11760000
C        0.90540000       0.11180000       1.06950000
C       -1.25590000      -0.64250000      -0.17260000
C       -2.23650000      -0.52060000      -1.32820000
C       -2.61130000       0.00300000       0.02420000
O       -3.08640000      -1.05540000       0.86010000
C       -1.79270000      -1.70980000       0.78320000
H        0.36870000       0.49000000      -2.02210000
H        1.10620000      -2.02570000       0.40710000
H        2.20540000      -0.85530000      -0.46660000
H        1.53860000       0.99040000       1.10230000
H        0.44050000      -0.15200000       2.01280000
H       -1.97570000       0.24500000      -2.05160000
H       -2.74740000      -1.39340000      -1.72780000
H       -2.92450000       1.01540000       0.25000000
H       -1.86310000      -2.73770000       0.40690000
H       -1.30880000      -1.71140000       1.76700000
