18
Properties=species:S:1:pos:R:3 gdb_45485=T pbc="F F F"
O        0.05740000       0.06300000      -0.59420000
C        0.01490000       1.19160000      -0.17240000
C       -1.25420000       1.97650000       0.17600000
C       -0.78650000       3.26360000       0.88820000
C       -0.64690000       3.03470000       2.40750000
C        0.63760000       2.18610000       2.50320000
N        1.49470000       2.63210000       1.37290000
C        0.69040000       3.43650000       0.45970000
C        1.19850000       2.10320000       0.01590000
H       -1.73800000       2.21670000      -0.77880000
H       -1.95850000       1.36520000       0.74770000
H       -1.41150000       4.12350000       0.64370000
H       -0.49910000       3.99180000       2.91860000
H       -1.52070000       2.54970000       2.85200000
H        1.18540000       2.36350000       3.43230000
H        0.43550000       1.11120000       2.44470000
H        1.08900000       4.38350000       0.11010000
H        2.07310000       1.93710000      -0.60520000
