17
Properties=species:S:1:pos:R:3 gdb_64068=T pbc="F F F"
C        0.09200000       1.47590000       0.01990000
C       -0.07360000      -0.05300000       0.01460000
C       -1.53680000      -0.47340000      -0.05310000
O        0.61360000      -0.63150000      -1.11680000
C        1.96230000      -0.94520000      -0.79390000
C        1.98680000      -1.20960000       0.69950000
O        2.84580000      -1.71470000       1.36700000
C        0.63590000      -0.64890000       1.22570000
O        0.26560000      -0.67240000       2.36730000
H        1.14580000       1.76860000       0.06880000
H       -0.33430000       1.88820000      -0.89880000
H       -0.42110000       1.91090000       0.88200000
H       -2.01410000      -0.03450000      -0.93340000
H       -1.62040000      -1.56090000      -0.11940000
H       -2.05970000      -0.13560000       0.84520000
H        2.27200000      -1.82440000      -1.36620000
H        2.65310000      -0.12080000      -1.03690000
