17
Properties=species:S:1:pos:R:3 gdb_50175=T pbc="F F F"
O       -0.88650000       1.25380000      -0.21940000
C        0.17420000       1.03320000       0.30940000
C        1.40720000       1.87890000       0.14800000
C        1.23830000       3.11930000      -0.79950000
C        0.93490000       3.89930000       0.46310000
C       -0.06430000       4.50110000       1.09560000
C       -0.05600000       4.01870000       2.53680000
O        0.83640000       2.87920000       2.55750000
C        1.58760000       2.91190000       1.36860000
H        0.30290000       0.16930000       0.99740000
H        2.27890000       1.23760000      -0.01520000
H        2.17800000       3.38460000      -1.29060000
H        0.43380000       3.05330000      -1.53190000
H       -0.86940000       5.09190000       0.67890000
H        0.29430000       4.76810000       3.26300000
H       -1.05330000       3.68830000       2.85270000
H        2.65710000       3.03590000       1.58490000
