18
Properties=species:S:1:pos:R:3 gdb_15169=T pbc="F F F"
C        0.50930000       1.11360000       0.13280000
O       -0.13590000       0.10450000      -0.63430000
C        0.65900000      -0.90580000      -1.04620000
N        0.17370000      -1.83830000      -1.73880000
C        1.02310000      -2.93220000      -2.18340000
C        2.44540000      -2.98370000      -1.66700000
C        3.53380000      -3.52340000      -2.51570000
N        3.47860000      -2.08100000      -2.21430000
H        0.93690000       0.70600000       1.05710000
H        1.30100000       1.61160000      -0.44020000
H       -0.25940000       1.84400000       0.38800000
H        1.70590000      -0.81280000      -0.73000000
H        0.51380000      -3.86840000      -1.91610000
H        1.04120000      -2.91470000      -3.28340000
H        2.53530000      -3.11960000      -0.59010000
H        4.36640000      -4.05410000      -2.06330000
H        3.27950000      -3.85460000      -3.51970000
H        3.09780000      -1.58620000      -3.01880000
