23
Properties=species:S:1:pos:R:3 gdb_103771=T pbc="F F F"
C        0.26540000       1.47970000       0.30120000
C       -0.17250000       0.08490000      -0.16380000
C        0.60570000      -0.44890000      -1.35930000
C        0.44120000       0.32940000      -2.65200000
C        1.95390000      -1.09070000      -1.08680000
C        0.77770000      -1.94090000      -1.46670000
C        0.10560000      -3.05730000      -0.67080000
O       -0.03170000      -3.85600000      -1.86630000
C        0.60790000      -2.84970000      -2.68150000
H        1.33170000       1.49400000       0.55050000
H        0.09360000       2.23770000      -0.46910000
H       -0.29220000       1.78500000       1.19200000
H       -0.06690000      -0.61580000       0.67340000
H       -1.24310000       0.10200000      -0.41030000
H        0.80350000       1.35780000      -2.55120000
H        1.00030000      -0.13270000      -3.47140000
H       -0.61210000       0.37610000      -2.95380000
H        2.74690000      -0.96170000      -1.81800000
H        2.30220000      -1.13840000      -0.05850000
H        0.73070000      -3.55340000       0.08390000
H       -0.86920000      -2.81770000      -0.22520000
H       -0.05750000      -2.48230000      -3.47450000
H        1.53540000      -3.22100000      -3.13800000
