15
Properties=species:S:1:pos:R:3 gdb_34990=T pbc="F F F"
N       -0.32290000      -1.20900000      -0.15010000
C       -0.14140000      -0.08170000       0.03430000
C       -0.01730000       1.35440000       0.09090000
C        0.54930000       2.14190000       1.23370000
C        1.37730000       1.46470000       2.29560000
O        1.58250000       0.06720000       2.09290000
C        2.60340000       0.96510000       1.64820000
C        2.52080000       1.30320000       0.16640000
N        1.26720000       2.07120000      -0.05360000
H       -0.81110000       1.83490000      -0.47900000
H        0.08370000       3.09000000       1.48980000
H        1.31790000       1.79920000       3.32660000
H        3.56360000       0.87460000       2.15030000
H        3.35420000       1.95210000      -0.12080000
H        2.54820000       0.40910000      -0.46390000
