21
Properties=species:S:1:pos:R:3 gdb_74744=T pbc="F F F"
C       -0.04660000       1.49350000       0.08780000
C       -0.04550000       0.00540000      -0.01280000
C       -0.06860000      -0.78540000      -1.08810000
C        0.02410000      -2.24360000      -0.59600000
C       -0.83460000      -2.10040000       0.69670000
C        0.05540000      -0.93440000       1.21470000
C        1.43310000      -1.64020000       1.15130000
C        2.53620000      -1.38060000       2.12090000
C        1.40250000      -2.42350000       0.07070000
H        0.87620000       1.86370000       0.55440000
H       -0.13620000       1.96310000      -0.89620000
H       -0.87420000       1.85380000       0.71260000
H       -0.08460000      -0.48580000      -2.12820000
H       -0.26400000      -3.01070000      -1.31460000
H       -1.86850000      -1.80190000       0.49970000
H       -0.80450000      -2.98640000       1.33770000
H       -0.19710000      -0.48150000       2.17550000
H        2.22420000      -1.59340000       3.15160000
H        3.41690000      -1.99120000       1.90120000
H        2.84480000      -0.32670000       2.10320000
H        2.20380000      -3.03400000      -0.32550000
