22
Properties=species:S:1:pos:R:3 gdb_18123=T pbc="F F F"
C       -0.05900000       1.57530000      -0.06850000
C        1.43310000       1.94330000       0.01410000
C        2.14240000       0.86030000      -0.82850000
C        3.50240000       0.33470000      -0.31860000
C        3.47370000      -1.17090000      -0.63660000
C        2.02250000      -1.56990000      -0.31470000
C        1.17610000      -0.38320000      -0.82590000
C       -0.04670000       0.03870000       0.01810000
H       -0.66480000       2.04760000       0.71140000
H       -0.47070000       1.89320000      -1.03510000
H        1.64430000       2.96110000      -0.32750000
H        1.76610000       1.88090000       1.05840000
H        2.25900000       1.22270000      -1.85540000
H        4.35780000       0.85170000      -0.76370000
H        3.57330000       0.47580000       0.76790000
H        3.67960000      -1.33310000      -1.70250000
H        4.21540000      -1.74610000      -0.07340000
H        1.73200000      -2.52770000      -0.75690000
H        1.90530000      -1.67070000       0.77220000
H        0.85170000      -0.58840000      -1.85170000
H        0.09820000      -0.26580000       1.06290000
H       -0.98160000      -0.41830000      -0.32040000
