22
Properties=species:S:1:pos:R:3 gdb_117542=T pbc="F F F"
C       -0.00330000       1.53340000      -0.04330000
C        0.10260000       0.01290000      -0.09600000
N        0.55420000      -0.51540000       1.19450000
C        0.71230000      -1.96350000       1.24700000
C        1.78440000      -2.44110000       0.33960000
N        2.63060000      -2.69550000      -0.40640000
C        0.96260000      -2.45950000       2.69450000
C       -0.14860000      -1.98780000       3.63920000
N        1.15110000      -3.91070000       2.64940000
H        0.97660000       1.99070000       0.13570000
H       -0.38090000       1.92510000      -0.99200000
H       -0.67650000       1.84880000       0.75900000
H       -0.88390000      -0.42170000      -0.30200000
H        0.76200000      -0.28860000      -0.92650000
H        1.43620000      -0.07640000       1.44610000
H       -0.22980000      -2.41020000       0.89920000
H        1.91820000      -2.02810000       3.02080000
H       -0.25770000      -0.90150000       3.62080000
H       -1.11040000      -2.42730000       3.34640000
H        0.06840000      -2.30790000       4.66320000
H        1.54340000      -4.23920000       3.52560000
H        0.25170000      -4.37500000       2.54820000
