15
Properties=species:S:1:pos:R:3 gdb_50290=T pbc="F F F"
O        0.06060000      -0.10230000       0.13770000
C        0.04530000       1.10060000       0.12740000
C        1.27980000       1.97130000       0.08780000
C        1.23510000       3.07160000      -1.03840000
C        1.38140000       4.32250000      -0.15210000
O        2.38790000       3.90590000       0.82740000
C        1.41120000       2.93110000       1.30400000
C        0.37760000       4.04490000       0.99140000
O       -0.56760000       4.55530000       1.49940000
H       -0.91730000       1.66390000       0.14500000
H        2.15960000       1.33090000       0.01210000
H        2.06770000       2.96560000      -1.73520000
H        0.29940000       3.07000000      -1.60690000
H        1.55760000       5.29780000      -0.59970000
H        1.61430000       2.52470000       2.29200000
