18
Properties=species:S:1:pos:R:3 gdb_22882=T pbc="F F F"
C        0.22180000       1.57540000       0.00070000
C       -0.01830000       0.05650000       0.02820000
C        0.62810000      -0.63750000      -1.15100000
C        1.70530000      -1.36300000      -0.81390000
C        1.89290000      -1.30200000       0.63070000
N        2.85790000      -1.65070000       1.38940000
O        3.92250000      -2.21750000       0.67250000
C        0.65750000      -0.65400000       1.24080000
O        0.93570000       0.21070000       2.31740000
H        1.29160000       1.80110000       0.00320000
H       -0.22100000       2.01580000      -0.89840000
H       -0.22290000       2.04810000       0.87870000
H       -1.10040000      -0.11970000       0.03610000
H        0.26550000      -0.50080000      -2.16460000
H        2.36540000      -1.89840000      -1.48150000
H        4.54960000      -2.43450000       1.37030000
H       -0.01110000      -1.46500000       1.57510000
H        1.75090000      -0.11330000       2.72040000
