21
Properties=species:S:1:pos:R:3 gdb_53490=T pbc="F F F"
C        0.21400000       1.46790000      -0.02560000
C        0.08320000       0.01870000       0.04370000
C       -0.00550000      -1.18140000       0.10340000
C       -0.12440000      -2.63370000       0.17380000
C       -1.58000000      -3.14920000       0.05700000
C       -2.45820000      -2.62080000       1.20950000
C       -2.20680000      -2.76250000      -1.29810000
C       -1.58290000      -4.66890000       0.14260000
O       -0.61220000      -5.36780000       0.27900000
H        1.15710000       1.80250000       0.42080000
H        0.19550000       1.82270000      -1.06210000
H       -0.59970000       1.96970000       0.50990000
H        0.47570000      -3.09890000      -0.61710000
H        0.30220000      -3.00090000       1.11470000
H       -2.52000000      -1.53060000       1.15700000
H       -3.47450000      -3.02470000       1.15080000
H       -2.04000000      -2.89100000       2.18470000
H       -1.60780000      -3.13650000      -2.13480000
H       -3.21960000      -3.16730000      -1.39630000
H       -2.26380000      -1.67400000      -1.38130000
H       -2.60280000      -5.11620000       0.06600000
