21
Properties=species:S:1:pos:R:3 gdb_104543=T pbc="F F F"
C       -0.34660000       0.97770000      -0.63530000
C       -0.75090000      -0.49630000      -0.50580000
C       -1.40410000      -0.82480000       0.82370000
C       -2.75050000      -0.16410000       1.12580000
C       -3.80120000      -0.53680000       0.18380000
C       -4.65690000      -0.85610000      -0.60110000
C       -5.70160000      -1.23640000      -1.54170000
C       -1.07400000      -2.07700000       1.51590000
O       -0.51460000      -0.83100000       1.94910000
H        0.19190000       1.14820000      -1.57210000
H       -1.21730000       1.64100000      -0.63370000
H        0.30770000       1.27180000       0.19090000
H       -1.44200000      -0.77080000      -1.31090000
H        0.13740000      -1.12750000      -0.61320000
H       -3.03770000      -0.43460000       2.14820000
H       -2.61900000       0.92560000       1.12690000
H       -5.88560000      -0.44480000      -2.27660000
H       -5.43050000      -2.14340000      -2.09330000
H       -6.64770000      -1.43480000      -1.02580000
H       -1.79540000      -2.52730000       2.19690000
H       -0.36760000      -2.77300000       1.06540000
