13
Properties=species:S:1:pos:R:3 gdb_15449=T pbc="F F F"
N       -0.05250000       1.29540000       0.02720000
C        0.02760000       0.03290000       0.02540000
N        1.13220000      -0.81690000      -0.03860000
C        0.69570000      -2.13380000      -0.03050000
N       -0.56490000      -2.31480000       0.02380000
C       -1.16150000      -0.95450000       0.06870000
C       -2.01250000      -0.76990000       1.23620000
C       -2.71050000      -0.61710000       2.20050000
H        0.86470000       1.74170000      -0.02010000
H        2.09210000      -0.51560000      -0.05080000
H        1.42390000      -2.93750000      -0.07750000
H       -1.76050000      -0.81300000      -0.84050000
H       -3.33090000      -0.47760000       3.05090000
