19
Properties=species:S:1:pos:R:3 gdb_11578=T pbc="F F F"
O        0.15510000       0.57970000       1.02550000
C       -0.11960000       0.27260000      -0.33140000
C       -1.43010000      -0.50500000      -0.52580000
O       -1.70680000      -0.65790000      -1.91370000
C       -1.42160000      -1.83490000       0.22780000
N       -2.75700000      -2.39920000       0.33310000
C       -3.20320000      -3.26020000      -0.75400000
C       -2.84820000      -3.83510000       0.57260000
H       -0.51620000       1.19940000       1.32920000
H       -0.15310000       1.17170000      -0.96310000
H        0.72650000      -0.33720000      -0.67510000
H       -2.26240000       0.09710000      -0.13930000
H       -1.00950000      -1.20530000      -2.29250000
H       -0.70770000      -2.52170000      -0.27320000
H       -1.03880000      -1.65440000       1.23790000
H       -4.24140000      -3.14730000      -1.05210000
H       -2.51550000      -3.44260000      -1.57710000
H       -1.92030000      -4.40220000       0.63640000
H       -3.62080000      -4.15060000       1.26800000
