16
Properties=species:S:1:pos:R:3 gdb_18217=T pbc="F F F"
O        0.14880000      -0.18920000       0.04270000
C        0.10360000       1.00240000       0.20720000
C        1.30440000       1.93190000       0.11400000
C        1.23990000       2.83540000      -1.11020000
C        1.39570000       4.12360000      -0.79240000
C        1.51320000       4.32820000       0.67770000
C        0.28000000       3.94040000       1.46840000
C        1.38820000       2.93240000       1.27350000
H       -0.85620000       1.51580000       0.43900000
H        2.18920000       1.28500000       0.07480000
H        1.07980000       2.44010000      -2.10640000
H        1.41430000       4.94180000      -1.50350000
H        2.18830000       5.07540000       1.07910000
H        0.17480000       4.34640000       2.46910000
H       -0.65150000       3.84010000       0.92270000
H        1.96010000       2.64770000       2.14790000
