13
Properties=species:S:1:pos:R:3 gdb_27850=T pbc="F F F"
N        0.05730000       1.33800000      -0.08300000
C       -0.06320000      -0.00740000      -0.03350000
C       -1.24890000      -0.70170000      -0.01640000
C       -1.11670000      -2.10070000      -0.00440000
O       -2.24250000      -2.82080000       0.01120000
N        0.01690000      -2.76890000      -0.00590000
C        1.18870000      -2.10250000      -0.01920000
O        2.30400000      -2.52410000      -0.02100000
O        1.10570000      -0.62970000      -0.03050000
H        0.96910000       1.73390000       0.07530000
H       -0.74700000       1.91520000       0.09090000
H       -2.21200000      -0.21540000      -0.01910000
H       -1.96360000      -3.74940000       0.01780000
