12
Properties=species:S:1:pos:R:3 gdb_129224=T pbc="F F F"
N       -0.13470000       1.34030000       0.00820000
C        0.02570000       0.08160000       0.00100000
N       -1.11980000      -0.73640000       0.00280000
N       -1.13840000      -2.05880000      -0.00390000
N       -0.03420000      -2.69410000      -0.01270000
C        1.14330000      -1.91940000      -0.01470000
N        1.22370000      -0.62570000      -0.00870000
C        2.33920000      -2.69790000      -0.02520000
C        3.33610000      -3.36950000      -0.03400000
H        0.77680000       1.79580000       0.00580000
H       -2.02970000      -0.29420000       0.00970000
H        4.22170000      -3.95730000      -0.04180000
