17
Properties=species:S:1:pos:R:3 gdb_102156=T pbc="F F F"
C        0.12800000       1.53020000       0.83860000
O        0.30960000       0.25710000       0.23830000
C       -0.86730000      -0.36850000      -0.17460000
C       -0.39490000      -1.61300000      -0.96650000
C       -1.47510000      -2.26120000      -1.70000000
N       -2.36310000      -2.73480000      -2.26910000
C       -1.76320000      -0.78440000       1.02240000
N       -3.05650000      -1.06640000       0.69430000
O       -1.33360000      -0.82920000       2.15590000
H        1.12690000       1.93040000       1.02200000
H       -0.41000000       2.21240000       0.16290000
H       -0.41150000       1.45140000       1.78730000
H       -1.44920000       0.28540000      -0.84640000
H        0.37610000      -1.28490000      -1.67000000
H        0.07080000      -2.32410000      -0.27650000
H       -3.33870000      -1.21470000      -0.26190000
H       -3.62990000      -1.47700000       1.41530000
