23
Properties=species:S:1:pos:R:3 gdb_118512=T pbc="F F F"
O       -0.21770000       1.40560000      -0.34990000
C        0.00150000       0.02880000      -0.07590000
C       -1.36650000      -0.63790000       0.02920000
C       -1.33170000      -2.17030000       0.16970000
C       -0.70610000      -2.60990000       1.50600000
O       -0.57890000      -4.01470000       1.63440000
C       -2.73110000      -2.74680000       0.01700000
C       -3.32790000      -2.95780000      -1.34900000
C       -2.94990000      -4.15160000      -0.50870000
H        0.63680000       1.84560000      -0.37870000
H        0.58440000      -0.44980000      -0.88070000
H        0.57220000      -0.09700000       0.85680000
H       -1.91070000      -0.19520000       0.87370000
H       -1.93070000      -0.37450000      -0.87220000
H       -0.70770000      -2.58530000      -0.63530000
H        0.30970000      -2.21480000       1.60190000
H       -1.29770000      -2.18360000       2.33550000
H       -1.45530000      -4.39120000       1.50540000
H       -3.42820000      -2.41680000       0.78580000
H       -4.38080000      -2.74330000      -1.49270000
H       -2.70730000      -2.73170000      -2.21020000
H       -2.07550000      -4.71990000      -0.80750000
H       -3.74710000      -4.75080000      -0.08140000
