19
Properties=species:S:1:pos:R:3 gdb_60944=T pbc="F F F"
C       -0.29940000       1.53140000       0.11680000
C        0.07600000       0.05080000       0.05040000
C       -1.13300000      -0.85890000       0.18040000
O       -2.26870000      -0.48330000       0.32250000
C        0.82720000      -0.32150000      -1.22230000
C        2.28700000       0.01200000      -1.49490000
C        3.12330000      -0.23170000      -0.24450000
O        2.56350000      -1.56390000      -0.07880000
C        1.84150000      -1.42260000      -1.30640000
H        0.59540000       2.15810000       0.06590000
H       -0.95760000       1.80420000      -0.71350000
H       -0.83430000       1.75680000       1.04260000
H        0.72310000      -0.22030000       0.89710000
H       -0.88960000      -1.94480000       0.12740000
H        0.23410000      -0.23580000      -2.13220000
H        2.61120000       0.54110000      -2.38040000
H        4.19730000      -0.29520000      -0.44900000
H        2.95150000       0.40750000       0.62970000
H        1.80180000      -2.28000000      -1.96870000
