17
Properties=species:S:1:pos:R:3 gdb_24297=T pbc="F F F"
C       -0.00950000       1.49080000       0.08320000
C        1.30790000       0.76400000       0.01920000
C        2.02240000       0.43230000       1.33250000
N        1.06050000      -0.43490000       2.00800000
C        0.95250000      -1.09650000       3.19340000
N       -0.15010000      -1.81590000       3.23730000
C       -0.78790000      -1.60550000       2.03120000
C       -0.05060000      -0.75090000       1.25380000
C        0.00040000      -0.02250000      -0.03110000
H       -0.32830000       1.92310000       1.02640000
H       -0.29880000       2.05740000      -0.79540000
H        1.92180000       0.88110000      -0.86520000
H        2.96350000      -0.09880000       1.15070000
H        2.24270000       1.32060000       1.93430000
H        1.69240000      -1.02370000       3.97630000
H       -1.73080000      -2.07900000       1.80600000
H       -0.34860000      -0.49240000      -0.94190000
