27
Properties=species:S:1:pos:R:3 gdb_122211=T pbc="F F F"
C        1.42830000      -2.19350000       2.64180000
C        0.78000000      -2.11480000       1.25710000
C       -0.70950000      -2.47620000       1.26650000
C       -1.36400000      -2.37450000      -0.11830000
C       -2.81870000      -2.82680000      -0.16730000
C       -3.81520000      -2.04310000       0.67920000
C       -3.95420000      -0.56780000       0.28330000
C       -3.32610000      -3.37080000      -1.48290000
C       -3.06790000      -4.30880000      -0.32640000
H        2.49100000      -1.93380000       2.60270000
H        0.94380000      -1.50700000       3.34520000
H        1.34780000      -3.20310000       3.06040000
H        0.90490000      -1.10170000       0.85160000
H        1.31000000      -2.78310000       0.56520000
H       -0.83470000      -3.49730000       1.65220000
H       -1.23020000      -1.81940000       1.97560000
H       -1.28390000      -1.34080000      -0.48150000
H       -0.78740000      -2.98350000      -0.82700000
H       -4.79550000      -2.52820000       0.59580000
H       -3.53750000      -2.11250000       1.73870000
H       -4.72640000      -0.07420000       0.88190000
H       -3.02090000      -0.01610000       0.43440000
H       -4.23110000      -0.46770000      -0.77160000
H       -4.35770000      -3.17150000      -1.75540000
H       -2.64510000      -3.40030000      -2.32730000
H       -2.20860000      -4.96890000      -0.39010000
H       -3.92340000      -4.74610000       0.17810000
