17
Properties=species:S:1:pos:R:3 gdb_29524=T pbc="F F F"
N        0.03460000       1.44470000      -0.05810000
C        0.02610000       0.03480000      -0.03160000
C       -1.06060000      -0.81870000      -0.16260000
N       -0.61940000      -2.13630000      -0.12130000
C        0.74670000      -2.12440000      -0.02640000
C        1.14900000      -0.82510000       0.05520000
O        2.48790000      -0.65740000       0.31030000
C        3.04960000      -1.98430000       0.14430000
C        1.89470000      -3.03770000       0.26350000
H        0.82270000       1.81780000       0.45660000
H       -0.81500000       1.83990000       0.32510000
H       -2.10310000      -0.58900000      -0.31380000
H       -1.19410000      -2.92870000      -0.34380000
H        3.49790000      -2.04030000      -0.85530000
H        3.83360000      -2.11120000       0.89360000
H        1.84420000      -3.48360000       1.26750000
H        2.04870000      -3.85540000      -0.44910000
