15
Properties=species:S:1:pos:R:3 gdb_14116=T pbc="F F F"
N        0.10020000       1.17230000      -0.52510000
C        0.00460000       0.02350000       0.21400000
O        0.92400000      -0.39050000       0.89780000
C       -1.28210000      -0.70880000       0.09260000
C       -1.70640000      -1.70120000       1.16840000
C       -1.46980000      -2.19710000      -0.20650000
O       -2.59070000      -1.95650000      -1.05580000
C       -2.43690000      -0.52280000      -0.89160000
H        0.92080000       1.73910000      -0.38180000
H       -0.70810000       1.61080000      -0.93110000
H       -0.91090000      -1.89710000       1.87900000
H       -2.71870000      -1.66690000       1.56080000
H       -0.74980000      -2.95060000      -0.50230000
H       -3.35090000      -0.04500000      -0.51900000
H       -2.13840000      -0.06620000      -1.84320000
