20
Properties=species:S:1:pos:R:3 gdb_52938=T pbc="F F F"
C        0.56950000       1.55200000      -0.34440000
C        0.39970000       0.11040000      -0.24560000
C        0.25870000      -1.08410000      -0.16170000
C        0.08900000      -2.51020000      -0.07220000
C        0.68910000      -3.51870000       0.94570000
N       -0.14210000      -4.44740000       0.04830000
C       -1.20510000      -3.34160000       0.14610000
C        0.45830000      -3.61870000      -1.11340000
C       -0.16760000      -3.71890000      -2.48900000
H        1.62970000       1.82590000      -0.38390000
H        0.09100000       1.94800000      -1.24700000
H        0.12690000       2.06430000       0.51710000
H        1.76520000      -3.70750000       0.90180000
H        0.32910000      -3.47000000       1.97620000
H       -1.67590000      -3.28040000       1.13070000
H       -1.95820000      -3.36030000      -0.64100000
H        1.53560000      -3.80390000      -1.19320000
H       -1.23420000      -3.48700000      -2.51290000
H        0.33870000      -3.02610000      -3.16930000
H       -0.03330000      -4.73210000      -2.88200000
