23
Properties=species:S:1:pos:R:3 gdb_96584=T pbc="F F F"
C        0.18810000       1.64450000       0.09150000
C        0.01080000       0.13060000       0.01410000
C        0.67610000      -0.45260000      -1.24990000
C        1.04480000      -1.94130000      -1.19600000
C       -0.09960000      -2.96060000      -1.10400000
C       -0.95450000      -2.89450000       0.17210000
O       -0.17690000      -2.68340000       1.34530000
C       -0.20170000      -1.38650000       1.87690000
O        0.57360000      -0.43390000       1.20420000
H        1.24870000       1.89010000       0.20510000
H       -0.18150000       2.12640000      -0.81950000
H       -0.35260000       2.05710000       0.94780000
H       -1.06520000      -0.09150000      -0.00290000
H        0.02030000      -0.24830000      -2.10710000
H        1.60130000       0.10860000      -1.43400000
H        1.62540000      -2.17380000      -2.09650000
H        1.71340000      -2.09840000      -0.34490000
H       -0.77150000      -2.87070000      -1.96870000
H        0.34690000      -3.96010000      -1.16570000
H       -1.72760000      -2.11830000       0.09160000
H       -1.47850000      -3.84850000       0.30500000
H       -1.24710000      -1.03430000       1.94410000
H        0.23250000      -1.47160000       2.87620000
