19
Properties=species:S:1:pos:R:3 gdb_108485=T pbc="F F F"
C       -0.19610000       1.46660000       0.12050000
O       -0.04210000       0.05710000       0.07570000
C       -1.24980000      -0.62040000      -0.02280000
C       -2.14790000      -0.72700000       1.22690000
O       -2.22930000      -2.16550000       1.08950000
C       -1.33240000      -2.17090000      -0.04420000
C       -2.10830000      -2.14020000      -1.37900000
C       -2.00880000      -0.57840000      -1.39060000
O       -3.17440000       0.19450000      -1.52830000
H        0.80710000       1.89630000       0.15140000
H       -0.72520000       1.84760000      -0.76320000
H       -0.74660000       1.78570000       1.01770000
H       -1.62960000      -0.43660000       2.14920000
H       -3.13290000      -0.24410000       1.19830000
H       -0.48250000      -2.84340000       0.08200000
H       -1.61340000      -2.62300000      -2.22470000
H       -3.12250000      -2.53700000      -1.28340000
H       -1.31910000      -0.22720000      -2.16360000
H       -3.86900000      -0.20530000      -0.99460000
