20
Properties=species:S:1:pos:R:3 gdb_75505=T pbc="F F F"
C        0.34750000       1.45910000       0.14880000
C       -0.01310000       0.01190000      -0.05250000
N        0.16640000      -0.55410000      -1.16480000
C       -0.02540000      -1.95800000      -1.48190000
C       -0.03990000      -2.95390000      -0.31410000
C       -1.30060000      -2.78420000       0.50490000
C       -1.26440000      -2.67850000       2.01400000
C       -1.50210000      -1.45820000       1.17280000
O       -0.47120000      -0.50120000       1.15060000
H        0.80720000       1.85880000      -0.75380000
H       -0.54480000       2.04180000       0.40160000
H        1.03910000       1.55630000       0.99210000
H       -0.95750000      -2.05500000      -2.05830000
H        0.77710000      -2.22730000      -2.18030000
H        0.02980000      -3.97720000      -0.70230000
H        0.84870000      -2.79490000       0.30640000
H       -2.19160000      -3.22650000       0.06610000
H       -2.09050000      -3.07410000       2.59410000
H       -0.29380000      -2.74960000       2.49270000
H       -2.49040000      -1.00390000       1.17560000
