15
Properties=species:S:1:pos:R:3 gdb_131306=T pbc="F F F"
O        0.31140000       1.23220000      -0.13800000
C        0.12300000      -0.08720000      -0.07650000
N        0.18560000      -0.86460000      -1.15110000
N       -0.06230000      -2.05640000      -0.59870000
N       -0.26130000      -2.02360000       0.70200000
N       -0.14590000      -0.75880000       1.06080000
C       -0.10270000      -3.26080000      -1.38360000
C        0.40150000      -4.54850000      -0.79200000
C       -1.07620000      -4.34890000      -1.02220000
H        0.21710000       1.57280000       0.76070000
H        0.09060000      -3.02520000      -2.42040000
H        0.95420000      -5.21380000      -1.44520000
H        0.75170000      -4.50320000       0.23220000
H       -1.69220000      -4.17310000      -0.14850000
H       -1.56100000      -4.87410000      -1.83700000
