22
Properties=species:S:1:pos:R:3 gdb_110532=T pbc="F F F"
C       -0.15660000       1.51130000      -0.01750000
C        0.07990000       0.00750000       0.10420000
N        0.63560000      -0.53760000      -1.13170000
C        0.83580000      -1.97510000      -1.24550000
C       -0.46800000      -2.64000000      -1.78180000
C       -1.46040000      -1.50290000      -2.00150000
C       -0.21080000      -0.63920000      -2.35820000
C        0.54780000      -1.98860000      -2.70950000
C        1.31070000      -2.45180000      -3.90470000
H        0.76590000       2.02240000      -0.30820000
H       -0.91770000       1.73300000      -0.77350000
H       -0.50310000       1.92820000       0.93280000
H        0.81820000      -0.18830000       0.89220000
H       -0.84950000      -0.49450000       0.42180000
H        1.58190000      -2.51930000      -0.67740000
H       -0.66580000      -3.69770000      -1.65530000
H       -2.06380000      -1.67670000      -2.89670000
H       -2.11150000      -1.17500000      -1.18420000
H       -0.29400000       0.25380000      -2.97630000
H        2.14750000      -1.78060000      -4.12920000
H        1.72290000      -3.45230000      -3.73330000
H        0.67540000      -2.50590000      -4.79650000
