21
Properties=species:S:1:pos:R:3 gdb_62724=T pbc="F F F"
C       -0.09680000       1.53180000       0.01580000
C        0.01840000       0.02090000       0.04800000
C       -1.20620000      -0.68360000      -0.51260000
C        1.35760000      -0.69760000      -0.23920000
C        2.62860000       0.06150000      -0.11260000
C        2.82120000       0.51500000       1.13100000
C        1.70020000       0.10560000       2.05940000
C        0.73880000      -0.68900000       1.16170000
O        0.09900000      -1.79230000       1.73100000
H        0.83130000       2.03080000       0.30040000
H       -0.36100000       1.87110000      -0.99230000
H       -0.88910000       1.87040000       0.69410000
H       -1.36780000      -0.38920000      -1.55590000
H       -1.10850000      -1.76900000      -0.46510000
H       -2.10390000      -0.41080000       0.05380000
H        1.30210000      -1.57140000      -0.88100000
H        3.30140000       0.22630000      -0.94720000
H        3.66140000       1.11640000       1.45880000
H        2.05780000      -0.52930000       2.88320000
H        1.21040000       0.96550000       2.53330000
H        0.77240000      -2.44700000       1.94640000
