20
Properties=species:S:1:pos:R:3 gdb_102145=T pbc="F F F"
C       -0.29390000       1.47590000       0.16770000
C       -0.09240000      -0.04060000       0.20180000
N        0.82580000      -0.47070000       1.25850000
C        0.24860000      -0.73650000       2.56980000
C       -0.34690000      -2.07160000       2.69530000
C       -0.82620000      -3.17010000       2.78300000
C        2.13890000      -0.72550000       0.93430000
C        3.03150000      -1.28580000       2.03280000
O        2.56980000      -0.50750000      -0.18520000
H        0.65510000       1.97810000      -0.03820000
H       -1.00500000       1.74690000      -0.61930000
H       -0.68660000       1.85640000       1.11710000
H       -1.04670000      -0.55730000       0.35490000
H        0.32910000      -0.38070000      -0.74490000
H        1.00660000      -0.59900000       3.34480000
H       -0.51850000       0.02210000       2.76710000
H       -1.25140000      -4.14020000       2.86210000
H        2.60510000      -2.18300000       2.49110000
H        3.99060000      -1.53000000       1.57770000
H        3.20020000      -0.54940000       2.82620000
