14
Properties=species:S:1:pos:R:3 gdb_42329=T pbc="F F F"
O       -0.15880000       0.02940000      -0.24370000
C       -0.11620000       1.19510000       0.08780000
C        1.11040000       1.96780000       0.07420000
C        2.16000000       2.57150000       0.02380000
C        3.33260000       3.25430000      -0.03100000
C        4.37460000       3.86270000      -0.07990000
N       -1.20910000       1.89810000       0.58220000
C       -1.78760000       3.07710000      -0.03850000
C       -2.53290000       1.77460000       0.01790000
H        5.29190000       4.39650000      -0.12170000
H       -2.05070000       3.88590000       0.63670000
H       -1.38550000       3.38830000      -0.99910000
H       -2.62430000       1.19460000      -0.89620000
H       -3.34090000       1.64780000       0.73220000
