19
Properties=species:S:1:pos:R:3 gdb_126571=T pbc="F F F"
C        0.08990000       1.48600000       0.06290000
C        0.00410000      -0.04150000       0.04700000
C       -1.44540000      -0.54590000      -0.07440000
C       -1.53930000      -2.03490000      -0.03350000
N       -1.97310000      -2.74160000      -1.04370000
O       -1.88160000      -4.06470000      -0.58000000
C       -1.39830000      -3.99870000       0.66730000
C       -1.19980000      -5.27100000       1.40930000
N       -1.16570000      -2.78470000       1.06570000
H        1.12790000       1.82160000       0.14680000
H       -0.32730000       1.91810000      -0.85350000
H       -0.46550000       1.90520000       0.90920000
H        0.59070000      -0.44010000      -0.78940000
H        0.44540000      -0.45380000       0.96090000
H       -2.03970000      -0.13910000       0.75320000
H       -1.89730000      -0.19500000      -1.00690000
H       -0.50410000      -5.92470000       0.87470000
H       -0.80100000      -5.05090000       2.39920000
H       -2.14680000      -5.80950000       1.51130000
