18
Properties=species:S:1:pos:R:3 gdb_86064=T pbc="F F F"
C        0.05690000       1.48990000       0.07210000
C        0.07490000      -0.00020000       0.00540000
C        0.04950000      -0.77080000      -1.10070000
C        0.03100000      -2.25300000      -0.76910000
C        0.47750000      -2.27130000       0.71390000
O        1.86940000      -2.51080000       0.84390000
C        0.08400000      -0.86990000       1.24170000
C       -0.00150000      -0.28170000      -2.43320000
N       -0.03980000       0.09880000      -3.52770000
H        0.93490000       1.86430000       0.61280000
H        0.03930000       1.94290000      -0.92160000
H       -0.82130000       1.83990000       0.62900000
H       -0.97870000      -2.66360000      -0.89610000
H        0.70470000      -2.85290000      -1.38750000
H       -0.00030000      -3.07570000       1.27710000
H        2.33560000      -1.84300000       0.32760000
H        0.78580000      -0.52930000       2.01060000
H       -0.91420000      -0.87500000       1.70250000
