20
Properties=species:S:1:pos:R:3 gdb_94371=T pbc="F F F"
C       -0.37360000       1.42120000       0.01300000
C        0.01260000      -0.04820000      -0.08110000
C        1.34200000      -0.37860000      -0.79040000
O        1.88510000      -0.96940000       0.40930000
C        0.68030000      -0.70720000       1.15250000
C        0.91570000      -0.07690000       2.54820000
N        0.41870000      -1.31100000       3.25890000
C       -0.97330000      -1.47480000       2.81290000
C        0.10460000      -1.90490000       1.89660000
H        0.45430000       2.02540000       0.39980000
H       -0.64240000       1.81590000      -0.97270000
H       -1.23430000       1.56910000       0.67380000
H       -0.83060000      -0.63980000      -0.45010000
H        1.28880000      -1.10030000      -1.61410000
H        1.92660000       0.49160000      -1.11580000
H        1.98350000       0.05890000       2.73070000
H        0.37200000       0.83700000       2.81160000
H       -1.50960000      -2.24760000       3.35520000
H       -1.56560000      -0.59030000       2.58340000
H        0.31120000      -2.94250000       1.65440000
