19
Properties=species:S:1:pos:R:3 gdb_53958=T pbc="F F F"
C       -0.09800000       1.42750000       0.09370000
C        0.00380000      -0.10780000       0.01300000
N        0.83670000      -0.57560000       1.13280000
H        0.72240000      -0.00180000       1.95980000
H        0.65140000      -1.54150000       1.38090000
H        2.18250000      -0.72600000      -0.19660000
C       -1.40380000      -0.70450000      -0.06050000
C       -1.75360000      -2.04330000       0.46390000
N       -2.24680000      -0.82260000       1.13680000
C        0.73500000      -0.44240000      -1.31720000
O        2.02770000      -0.75400000      -1.16550000
O        0.19330000      -0.38830000      -2.38880000
H        0.89680000       1.87820000       0.15930000
H       -0.59670000       1.81490000      -0.79640000
H       -0.68040000       1.72270000       0.97290000
H       -1.93860000      -0.36140000      -0.94020000
H       -2.51440000      -2.63330000      -0.03790000
H       -0.99700000      -2.64280000       0.96560000
H       -1.68260000      -0.65760000       1.96940000
