16
Properties=species:S:1:pos:R:3 gdb_105147=T pbc="F F F"
O        0.12730000       1.33070000      -0.41090000
C        0.02460000       0.13450000       0.33110000
C       -1.36870000      -0.46990000       0.20120000
N       -1.64110000      -0.96520000      -1.16830000
C       -1.54860000      -1.94880000      -0.06960000
C       -0.45520000      -2.88040000      -0.07920000
C        0.43640000      -3.68660000      -0.06080000
C       -2.43100000       0.19900000       0.90490000
C       -3.31820000       0.76230000       1.48950000
H       -0.07270000       1.09780000      -1.32550000
H        0.76070000      -0.61340000       0.00940000
H        0.22520000       0.39060000       1.37490000
H       -2.61990000      -0.81370000      -1.40120000
H       -2.48550000      -2.35960000       0.29910000
H        1.22950000      -4.39300000      -0.05100000
H       -4.09610000       1.26680000       2.00770000
