12
Properties=species:S:1:pos:R:3 gdb_11630=T pbc="F F F"
O       -0.04320000      -0.03310000      -0.13530000
C       -0.04270000       1.14000000       0.02610000
C       -0.95980000       2.38090000       0.05270000
C       -0.01630000       2.98220000       1.12920000
C        0.93830000       2.37470000       0.06170000
N       -0.00280000       2.98630000      -0.97510000
C        2.36710000       2.45710000      -0.02950000
N        3.52120000       2.48370000      -0.09370000
H       -2.03760000       2.47610000      -0.04170000
H       -0.00650000       4.07250000       1.13000000
H       -0.01210000       2.53620000       2.12310000
H        0.00850000       2.44520000      -1.84510000
