16
Properties=species:S:1:pos:R:3 gdb_44795=T pbc="F F F"
N       -0.05610000       1.24200000       0.26650000
C       -0.05760000      -0.00540000       0.15770000
O        0.99990000      -0.90850000       0.06670000
C        0.06100000      -1.99180000      -0.16280000
C       -0.79790000      -2.16270000       1.03380000
C       -1.12010000      -1.05390000       0.01890000
C       -2.41590000      -0.92690000      -0.68770000
C       -3.05080000       0.38260000      -0.90330000
O       -2.39100000      -0.30290000      -1.97220000
H        0.89360000       1.61540000       0.29900000
H        0.30360000      -2.70790000      -0.93500000
H       -1.49670000      -2.99430000       1.00360000
H       -0.41260000      -1.91520000       2.01780000
H       -3.05560000      -1.80860000      -0.63040000
H       -4.13540000       0.44000000      -0.98420000
H       -2.54160000       1.27370000      -0.54460000
