17
Properties=species:S:1:pos:R:3 gdb_17176=T pbc="F F F"
C       -0.04670000       1.54560000      -0.04330000
C       -0.07830000       0.01250000      -0.03920000
C       -1.46720000      -0.53600000       0.02010000
O       -2.42210000      -0.22560000      -1.04870000
C       -3.18990000      -1.06610000      -0.14440000
C       -1.98940000      -1.99590000       0.22240000
N       -2.09870000      -1.80700000       1.70630000
C       -2.54690000      -0.48650000       1.15520000
H        0.97970000       1.91310000      -0.12930000
H       -0.62550000       1.94170000      -0.88210000
H       -0.47320000       1.95050000       0.88010000
H        0.41000000      -0.37870000      -0.94010000
H        0.46970000      -0.38780000       0.82200000
H       -4.22730000      -1.29580000      -0.39180000
H       -1.65140000      -2.91770000      -0.25280000
H       -2.90110000      -2.32760000       2.06900000
H       -2.86380000       0.35570000       1.77130000
