18
Properties=species:S:1:pos:R:3 gdb_17589=T pbc="F F F"
C        0.04370000       1.51660000      -0.01380000
C       -0.07960000       0.03270000       0.12120000
O        1.05920000      -0.77440000      -0.23940000
C        0.50740000      -0.93580000       1.08260000
C        1.42590000      -0.76370000       2.24980000
C       -0.72120000      -1.82330000       0.97590000
C       -1.95020000      -1.02930000       1.34130000
C       -1.32720000      -0.82350000      -0.01660000
H        0.99260000       1.86800000       0.40020000
H        0.00770000       1.81340000      -1.06830000
H       -0.77750000       2.02150000       0.50490000
H        2.04790000       0.12700000       2.12800000
H        0.85600000      -0.67300000       3.18010000
H        2.09310000      -1.62770000       2.34770000
H       -0.72380000      -2.90370000       0.89900000
H       -2.88420000      -1.58350000       1.35330000
H       -1.89300000      -0.24710000       2.09430000
H       -1.84630000      -1.05180000      -0.93950000
