19
Properties=species:S:1:pos:R:3 gdb_73619=T pbc="F F F"
C        0.03430000       1.58730000       0.06590000
C       -0.00570000       0.08680000       0.14480000
O       -1.28940000      -0.43130000      -0.08390000
C       -1.50700000      -1.62170000       0.68380000
C       -0.26160000      -1.84240000       1.57880000
C        0.71640000      -0.77250000       1.11550000
C        1.19100000      -0.75120000      -0.35110000
C        1.04730000      -1.88270000      -1.28930000
O        1.85220000      -2.13340000      -2.15670000
H        1.04500000       1.95940000       0.25110000
H       -0.28080000       1.92750000      -0.92510000
H       -0.64320000       2.02340000       0.80700000
H       -2.42350000      -1.48930000       1.26920000
H       -1.66840000      -2.46230000      -0.00120000
H       -0.49840000      -1.67270000       2.63320000
H        0.12810000      -2.86050000       1.49360000
H        1.40830000      -0.35800000       1.83950000
H        2.10590000      -0.19100000      -0.51930000
H        0.13850000      -2.50890000      -1.17160000
