19
Properties=species:S:1:pos:R:3 gdb_60972=T pbc="F F F"
O       -0.36820000       1.40440000       0.51980000
C       -0.08270000       0.08710000       0.13900000
C        0.76920000       0.01000000      -1.12350000
O        1.43440000       0.91730000      -1.54900000
C        0.60600000      -0.76750000       1.23130000
C        2.03780000      -0.30670000       1.65470000
C        1.44870000       0.31070000       2.94080000
O        1.35170000       1.72030000       2.75480000
C        0.12130000      -0.45930000       2.68160000
H        0.39480000       1.77460000       0.98960000
H       -1.04940000      -0.38490000      -0.09280000
H        0.76140000      -0.98990000      -1.62120000
H        0.54240000      -1.81890000       0.93830000
H        2.70150000      -1.15010000       1.85700000
H        2.55580000       0.40260000       1.00490000
H        1.96540000       0.09070000       3.88230000
H        0.72910000       2.07050000       3.40160000
H       -0.79360000       0.13050000       2.77070000
H        0.03710000      -1.35940000       3.29580000
