19
Properties=species:S:1:pos:R:3 gdb_68030=T pbc="F F F"
O       -0.11130000       1.38390000       0.04890000
C        0.04670000       0.00130000       0.05990000
C        0.91920000      -0.79080000      -0.98480000
C        0.74650000      -1.90930000       0.11020000
O        1.51850000      -3.06590000       0.16610000
C        0.84790000      -0.76050000       1.15510000
C       -0.76090000      -2.18800000      -0.01380000
C       -1.71600000      -1.70240000       1.04760000
C       -1.28210000      -0.76500000      -0.05130000
H        0.76050000       1.79080000       0.07650000
H        0.49140000      -0.97350000      -1.97360000
H        1.94670000      -0.41660000      -1.06520000
H        2.44630000      -2.81200000       0.19810000
H        1.87360000      -0.38310000       1.22070000
H        0.43880000      -0.88400000       2.15740000
H       -1.06700000      -2.94730000      -0.72400000
H       -2.73100000      -2.07660000       0.95470000
H       -1.40740000      -1.56230000       2.07600000
H       -1.99380000      -0.41670000      -0.79070000
