15
Properties=species:S:1:pos:R:3 gdb_75851=T pbc="F F F"
C       -0.05110000       1.45590000       0.00960000
N        0.00090000       0.00750000      -0.00070000
C       -1.13270000      -0.80630000       0.00320000
N       -2.30670000      -0.32280000       0.01390000
C       -0.56190000      -2.22490000      -0.00840000
N        0.89860000      -2.08750000      -0.01650000
C        1.11170000      -0.82220000      -0.01140000
C        2.43100000      -0.25150000      -0.01670000
N        3.47760000       0.23790000      -0.02070000
H        0.96430000       1.85400000      -0.00030000
H       -0.59620000       1.81730000      -0.86690000
H       -0.57460000       1.80640000       0.90350000
H       -3.00670000      -1.06290000       0.01470000
H       -0.88070000      -2.79550000       0.87150000
H       -0.89130000      -2.78520000      -0.89100000
