17
Properties=species:S:1:pos:R:3 gdb_71479=T pbc="F F F"
C        0.18630000       1.49590000       0.09770000
C        0.03650000       0.00880000       0.12430000
C       -1.32760000      -0.74050000       0.22130000
C       -0.49970000      -1.93090000       0.69580000
C        0.62800000      -1.04220000       1.15130000
C        0.81360000      -1.80340000      -0.13250000
O        0.69270000      -0.67890000      -0.99270000
C        1.69930000      -2.92910000      -0.44770000
O        1.86720000      -3.87700000       0.28420000
H        1.24220000       1.77990000       0.09930000
H       -0.27820000       1.90170000      -0.80730000
H       -0.30130000       1.94600000       0.96740000
H       -1.94890000      -0.34450000       1.02850000
H       -1.89910000      -0.82230000      -0.70780000
H       -0.80410000      -2.88670000       1.09980000
H        1.23470000      -0.99850000       2.04510000
H        2.21640000      -2.83420000      -1.42750000
