21
Properties=species:S:1:pos:R:3 gdb_123074=T pbc="F F F"
C        0.07680000       1.40430000       0.09850000
C        0.02870000      -0.04900000       0.02150000
C        0.00230000      -1.25080000      -0.04310000
C       -0.06600000      -2.70490000      -0.11770000
C       -1.50210000      -3.22480000       0.00240000
O       -1.46130000      -4.63310000      -0.08620000
C       -2.72980000      -5.25350000       0.02540000
C       -2.48090000      -6.75330000       0.06060000
O       -1.66000000      -7.11300000       1.15350000
H        0.83300000       1.74030000       0.81670000
H        0.32250000       1.84800000      -0.87270000
H       -0.88670000       1.81800000       0.41640000
H        0.35440000      -3.06250000      -1.06570000
H        0.53630000      -3.15940000       0.67870000
H       -1.94200000      -2.90660000       0.96030000
H       -2.12410000      -2.80300000      -0.80230000
H       -3.22920000      -4.93330000       0.95370000
H       -3.37650000      -4.98220000      -0.82510000
H       -3.43170000      -7.28340000       0.17800000
H       -2.03600000      -7.06450000      -0.89820000
H       -0.90780000      -6.51020000       1.12110000
