18
Properties=species:S:1:pos:R:3 gdb_117466=T pbc="F F F"
C       -0.20470000       1.50150000       0.01190000
C       -0.03430000      -0.00420000       0.00310000
O       -1.35570000      -0.59350000       0.01340000
C       -1.40440000      -1.92800000       0.00620000
O       -0.43850000      -2.65360000      -0.00770000
C       -2.83960000      -2.41760000       0.01770000
N       -2.84300000      -3.85950000       0.01140000
C       -3.99250000      -4.57570000       0.01490000
O       -5.10440000      -4.08830000       0.02540000
H        0.77740000       1.98310000       0.00470000
H       -0.76010000       1.83760000      -0.86790000
H       -0.74270000       1.82910000       0.90570000
H        0.49720000      -0.35490000      -0.88670000
H        0.51470000      -0.36330000       0.87880000
H       -3.35240000      -2.01500000       0.89980000
H       -3.36870000      -2.00750000      -0.85120000
H       -1.93780000      -4.30700000      -0.00010000
H       -3.80350000      -5.66700000       0.00730000
