20
Properties=species:S:1:pos:R:3 gdb_8317=T pbc="F F F"
C       -0.51880000       1.37830000       0.23040000
O       -0.57890000      -0.00500000       0.48150000
C       -0.70810000      -0.77360000      -0.69250000
C       -0.74680000      -2.23530000      -0.28850000
C       -2.04720000      -2.79480000       0.31980000
C       -1.99960000      -3.79410000      -0.85790000
C       -3.18140000      -3.87790000      -1.80110000
O       -0.86730000      -3.09500000      -1.44220000
H       -0.41790000       1.88290000       1.19440000
H        0.34460000       1.64100000      -0.40120000
H       -1.43050000       1.74350000      -0.26870000
H       -1.62880000      -0.51190000      -1.24120000
H        0.14090000      -0.60520000      -1.37710000
H        0.15220000      -2.47010000       0.29750000
H       -1.97770000      -3.21450000       1.32360000
H       -2.88750000      -2.09720000       0.27690000
H       -1.69480000      -4.80370000      -0.54700000
H       -3.50890000      -2.87920000      -2.10630000
H       -2.91440000      -4.44160000      -2.70080000
H       -4.02110000      -4.38770000      -1.31570000
