20
Properties=species:S:1:pos:R:3 gdb_85073=T pbc="F F F"
C       -0.60410000       1.45280000      -0.00140000
C       -0.03980000       0.02070000       0.02370000
N        0.72880000      -0.24980000      -1.18280000
C        2.01770000      -0.67800000      -1.31360000
O        2.51880000      -0.85060000      -2.41160000
C        2.81210000      -0.93010000      -0.03150000
C        4.14380000      -0.15440000      -0.08880000
C        2.04310000      -0.64830000       1.22740000
C        0.78390000      -0.22670000       1.25180000
H        0.20890000       2.18420000      -0.00620000
H       -1.22040000       1.61120000      -0.89260000
H       -1.23230000       1.63150000       0.87670000
H       -0.90120000      -0.66810000       0.04990000
H        0.26620000      -0.10620000      -2.07010000
H        3.06630000      -2.00010000      -0.05920000
H        3.96740000       0.92520000      -0.04550000
H        4.78400000      -0.42780000       0.75540000
H        4.66220000      -0.38540000      -1.02080000
H        2.57730000      -0.80570000       2.16210000
H        0.27850000      -0.03770000       2.19460000
