21
Properties=species:S:1:pos:R:3 gdb_121548=T pbc="F F F"
C       -0.14480000       1.59030000       0.01040000
C       -0.00030000       0.06610000       0.01690000
C        0.70580000      -0.47180000      -1.23110000
C        0.85070000      -2.00710000      -1.21690000
C        1.52340000      -2.53260000      -2.39980000
C        2.08050000      -2.94020000      -3.38540000
C        2.75990000      -3.44130000      -4.58230000
C        2.64950000      -4.89130000      -4.75770000
C        2.56710000      -6.07900000      -4.91310000
H        0.83400000       2.07980000      -0.03900000
H       -0.72680000       1.92880000      -0.85390000
H       -0.65060000       1.94710000       0.91290000
H        0.55570000      -0.24600000       0.91110000
H       -0.99260000      -0.39690000       0.10040000
H        0.15270000      -0.17450000      -2.13030000
H        1.70160000      -0.02080000      -1.31990000
H        1.40150000      -2.31090000      -0.31660000
H       -0.14410000      -2.46420000      -1.12880000
H        2.35590000      -2.94040000      -5.47320000
H        3.82290000      -3.16430000      -4.54730000
H        2.49080000      -7.12970000      -5.04490000
