18
Properties=species:S:1:pos:R:3 gdb_37536=T pbc="F F F"
C       -0.10120000       1.64230000      -0.02860000
C        1.37870000       1.25920000      -0.04210000
N        1.15640000       0.15220000       1.01630000
C       -0.06880000       0.11430000       0.02770000
C        1.16360000      -0.02870000      -0.93660000
C        1.81720000      -0.32160000      -2.24860000
C        3.03510000      -0.80560000      -1.94720000
C        3.30400000      -0.92100000      -0.43230000
C        1.85760000      -0.87250000       0.08880000
H       -0.45450000       2.14460000       0.87560000
H       -0.51190000       2.09500000      -0.93400000
H        2.25730000       1.90450000       0.00150000
H       -0.87160000      -0.60820000       0.18600000
H        1.45300000      -0.10450000      -3.24500000
H        3.79920000      -1.04550000      -2.67930000
H        3.85170000      -1.82880000      -0.16290000
H        3.91170000      -0.06990000      -0.09740000
H        1.45280000      -1.87820000       0.24880000
