14
Properties=species:S:1:pos:R:3 gdb_11020=T pbc="F F F"
O       -0.11980000       1.39130000       0.07410000
C       -0.06930000       0.00520000       0.02740000
C       -0.47690000      -0.75860000      -1.19010000
C       -1.32340000      -0.82300000       0.08200000
C       -1.02780000      -1.98250000       0.97790000
O       -1.76160000      -2.84210000       1.36680000
O        0.29930000      -1.94580000       1.32900000
C        0.90870000      -0.70090000       0.96140000
H        0.51120000       1.74190000      -0.56360000
H       -0.92000000      -0.18390000      -1.99580000
H        0.08560000      -1.63500000      -1.49690000
H       -2.32160000      -0.40890000       0.07560000
H        1.87960000      -0.91920000       0.50500000
H        1.06100000      -0.09190000       1.85950000
