17
Properties=species:S:1:pos:R:3 gdb_28256=T pbc="F F F"
O        0.10640000       1.28690000       0.14530000
C        0.06890000      -0.05140000       0.01580000
N        0.06130000      -0.72900000      -1.10450000
C       -0.00950000      -2.04480000      -0.67530000
C       -0.04250000      -2.13500000       0.67600000
C       -0.02170000      -3.52320000       1.21630000
C       -0.27430000      -4.33150000      -0.10870000
C        0.02360000      -3.39180000      -1.32820000
N        0.02230000      -0.82680000       1.14070000
H        0.12780000       1.63970000      -0.75330000
H        0.94400000      -3.78360000       1.67280000
H       -0.79110000      -3.73850000       1.96740000
H        0.32140000      -5.24700000      -0.13940000
H       -1.32540000      -4.63190000      -0.13880000
H       -0.71660000      -3.52030000      -2.12530000
H        1.00410000      -3.60480000      -1.77440000
H       -0.01520000      -0.48360000       2.08480000
