19
Properties=species:S:1:pos:R:3 gdb_111555=T pbc="F F F"
C        0.30240000       1.26810000       0.24660000
O       -0.21680000       0.01880000      -0.15170000
C        0.49750000      -0.57910000      -1.19030000
C        1.88660000      -1.24000000      -0.90960000
O        1.62990000      -2.12800000       0.20740000
C        0.85870000      -2.90690000      -0.70580000
C        1.48570000      -2.35290000      -1.94140000
C        0.03760000      -1.96590000      -1.60430000
C       -1.24220000      -2.35060000      -2.28160000
H        1.31530000       1.17760000       0.66510000
H        0.33600000       1.98100000      -0.59290000
H       -0.36040000       1.66480000       1.01900000
H        0.57320000       0.08720000      -2.06550000
H        2.82030000      -0.68780000      -0.83090000
H        0.55020000      -3.90510000      -0.42370000
H        1.94590000      -2.77820000      -2.82200000
H       -1.25460000      -3.41710000      -2.53110000
H       -2.09960000      -2.15000000      -1.63080000
H       -1.38750000      -1.79090000      -3.21260000
