17
Properties=species:S:1:pos:R:3 gdb_130176=T pbc="F F F"
N       -0.07720000       1.38760000       0.27530000
C        0.04820000       0.00810000       0.09270000
N       -1.03660000      -0.76830000       0.07250000
N       -0.54370000      -2.05530000      -0.05090000
C        0.79840000      -2.04940000      -0.09120000
C        1.23640000      -0.75360000      -0.00080000
C        2.73490000      -0.74080000      -0.12540000
C        3.05780000      -2.26610000       0.03880000
N        1.79620000      -3.00330000      -0.29220000
H        0.55280000       1.92160000      -0.30890000
H       -1.03250000       1.68730000       0.12350000
H       -1.18990000      -2.82270000      -0.06120000
H        3.07370000      -0.37960000      -1.10610000
H        3.26040000      -0.14950000       0.63140000
H        3.86650000      -2.59790000      -0.61690000
H        3.35340000      -2.46920000       1.07630000
H        1.69260000      -3.86280000       0.23370000
