15
Properties=species:S:1:pos:R:3 gdb_130421=T pbc="F F F"
N        0.04220000       1.20480000      -0.04900000
H        1.13940000      -0.20710000       1.28500000
H        0.68310000       1.97010000      -0.23210000
H       -0.55310000       1.11560000      -0.86340000
C       -0.75700000       1.46910000       1.14860000
C       -0.02150000       1.03190000       2.39930000
N        0.93820000       0.08960000       2.23710000
C        1.66740000      -0.43160000       3.30770000
O        2.53680000      -1.26580000       3.16920000
C        1.21970000       0.18140000       4.56210000
N        0.29760000       1.08510000       4.66800000
N       -0.35530000       1.54650000       3.54670000
H       -1.06530000       2.51110000       1.29470000
H       -1.67600000       0.87450000       1.08550000
H        1.70910000      -0.14740000       5.47460000
