20
Properties=species:S:1:pos:R:3 gdb_94350=T pbc="F F F"
C       -0.40770000       1.45240000       0.02290000
C        0.12330000       0.03730000      -0.13360000
C        1.55050000      -0.19030000      -0.72380000
C        1.79490000      -1.30970000       0.33100000
C        0.59820000      -0.74050000       1.10360000
C        0.61430000      -0.28240000       2.53180000
N       -0.23160000      -1.37760000       2.09860000
C       -0.11950000      -2.67550000       2.56200000
O        0.10970000      -2.98750000       3.70510000
H        0.31040000       2.08840000       0.55200000
H       -0.60050000       1.90780000      -0.95420000
H       -1.34820000       1.46310000       0.58460000
H       -0.60260000      -0.57910000      -0.67740000
H        1.61380000      -0.47660000      -1.77490000
H        2.19670000       0.67540000      -0.55370000
H        1.59080000      -2.30450000      -0.07560000
H        2.75920000      -1.32980000       0.84370000
H        1.47410000      -0.54060000       3.14580000
H        0.09670000       0.62920000       2.81810000
H       -0.33560000      -3.41340000       1.76520000
