17
Properties=species:S:1:pos:R:3 gdb_16238=T pbc="F F F"
O        0.42890000       0.86520000      -0.75200000
C        0.06750000      -0.25640000       0.02820000
C        0.44550000      -0.18640000       1.53070000
C       -0.64960000      -0.98680000       2.19730000
C       -1.67540000      -1.21150000       1.37430000
C       -1.43250000      -0.61120000       0.03740000
C       -2.43300000       0.20910000      -0.70420000
N       -2.10260000      -1.15410000      -1.15280000
H        0.04000000       1.64540000      -0.34050000
H        0.60500000      -1.09470000      -0.43150000
H        1.45290000      -0.56770000       1.72640000
H        0.43890000       0.85970000       1.87430000
H       -0.59530000      -1.30420000       3.23240000
H       -2.58990000      -1.74190000       1.61100000
H       -3.43700000       0.33430000      -0.30720000
H       -2.05780000       1.04550000      -1.28760000
H       -1.46610000      -1.09630000      -1.94660000
