16
Properties=species:S:1:pos:R:3 gdb_44178=T pbc="F F F"
O        0.19750000       0.14630000      -0.74830000
C        0.06620000       1.21490000      -0.22980000
C       -1.14560000       1.99290000       0.32840000
C       -0.16950000       3.11030000       0.78020000
C        0.45390000       2.86780000       2.19810000
C        1.69300000       2.17300000       1.53090000
C        1.04390000       2.34760000       0.12760000
C        0.75630000       4.06740000       2.95970000
N        1.00220000       5.03250000       3.54730000
H       -1.80670000       2.31160000      -0.48510000
H       -1.75390000       1.49310000       1.08780000
H       -0.42970000       4.13700000       0.53490000
H       -0.14770000       2.20110000       2.82250000
H        2.60410000       2.76130000       1.64280000
H        1.89290000       1.14910000       1.85180000
H        1.67300000       2.73430000      -0.67410000
