14
Properties=species:S:1:pos:R:3 gdb_62413=T pbc="F F F"
C       -0.04230000       1.57690000      -0.06820000
C       -0.00440000       0.04790000      -0.03190000
C       -1.30410000      -0.54220000       0.25910000
N       -2.33480000      -1.02170000       0.47140000
C        0.72090000      -0.68510000      -1.19690000
O        2.04480000      -0.19030000      -1.20480000
C        1.74690000      -1.29450000      -0.31760000
C        1.10520000      -0.63960000       0.89650000
O        1.25780000      -0.68300000       2.07320000
H        0.93500000       1.95620000      -0.37210000
H       -0.80160000       1.93350000      -0.76940000
H       -0.28030000       1.96650000       0.92470000
H        0.29190000      -1.07080000      -2.11300000
H        2.34150000      -2.19420000      -0.41270000
