23
Properties=species:S:1:pos:R:3 gdb_83531=T pbc="F F F"
C       -0.09130000       1.61220000      -0.08140000
C       -0.03450000       0.08180000       0.00610000
C       -1.44700000      -0.42880000      -0.31200000
C        1.14060000      -0.66780000      -0.73140000
C        2.39730000       0.06550000      -0.21690000
C        2.02610000       0.14390000       1.31150000
C        0.66040000      -0.57340000       1.26370000
C        1.05790000      -1.78170000       0.36880000
O        0.08560000      -2.79840000       0.27120000
H        0.85630000       2.11600000       0.11110000
H       -0.42850000       1.91860000      -1.07870000
H       -0.82210000       2.00210000       0.63680000
H       -1.74340000      -0.10110000      -1.31630000
H       -1.53300000      -1.51010000      -0.26010000
H       -2.16700000       0.00740000       0.39100000
H        1.09280000      -0.90380000      -1.79740000
H        3.30720000      -0.51620000      -0.39210000
H        2.54150000       1.04570000      -0.67570000
H        2.74350000      -0.39030000       1.94080000
H        1.95900000       1.16760000       1.68490000
H        0.12800000      -0.71990000       2.20490000
H        2.02880000      -2.23410000       0.62080000
H        0.33180000      -3.36900000      -0.46390000
