18
Properties=species:S:1:pos:R:3 gdb_100513=T pbc="F F F"
C       -0.02640000       1.54800000       0.06970000
C       -0.08910000       0.02640000      -0.07480000
C        0.76370000      -0.46200000      -1.27180000
O        2.10680000      -0.06110000      -1.15080000
C        0.68900000      -1.97130000      -1.38140000
O        1.64790000      -2.67010000      -1.12380000
C       -0.64370000      -2.60260000      -1.83390000
N       -0.59400000      -3.95170000      -1.83840000
O       -1.59870000      -1.91890000      -2.15070000
H        1.00840000       1.88140000       0.17770000
H       -0.45360000       2.04320000      -0.80900000
H       -0.59090000       1.87650000       0.94750000
H        0.29240000      -0.45300000       0.83570000
H       -1.12060000      -0.30520000      -0.22290000
H        0.33750000      -0.03390000      -2.18980000
H        2.60690000      -0.85770000      -0.92010000
H        0.26460000      -4.41200000      -1.58280000
H       -1.39300000      -4.48170000      -2.14290000
