20
Properties=species:S:1:pos:R:3 gdb_113109=T pbc="F F F"
C       -0.38170000       1.34000000       0.15650000
O        0.24420000       0.10580000      -0.11510000
C        0.85560000      -0.46600000       1.00980000
C       -0.09200000      -1.24480000       1.96960000
N        0.31050000      -2.49940000       1.30350000
C        0.52370000      -3.68510000       2.09390000
C        0.67910000      -4.91620000       1.21330000
O        1.38750000      -5.85360000       1.47070000
C        1.46860000      -1.83730000       0.66420000
H        0.33620000       2.08120000       0.54210000
H       -0.79740000       1.70570000      -0.78500000
H       -1.19860000       1.24020000       0.88690000
H        1.52370000       0.25720000       1.49590000
H        0.23010000      -1.17500000       3.02030000
H       -1.16180000      -1.01790000       1.90490000
H        1.38520000      -3.63150000       2.78480000
H       -0.37460000      -3.85840000       2.70590000
H        0.05430000      -4.87960000       0.29260000
H        1.58980000      -2.04310000      -0.40350000
H        2.42200000      -2.01800000       1.18450000
