17
Properties=species:S:1:pos:R:3 gdb_64589=T pbc="F F F"
C       -0.07360000       1.56500000       0.10610000
C       -0.01570000       0.05660000       0.08630000
C       -1.22120000      -0.65240000      -0.41170000
O       -2.22240000      -0.10990000      -0.81150000
C        1.30960000      -0.68920000      -0.21200000
O        2.47110000       0.09460000      -0.16020000
C        2.82620000       0.16570000       1.21440000
O        1.62650000       0.03550000       1.96160000
C        0.76300000      -0.72930000       1.16170000
H        0.92640000       1.99850000       0.12550000
H       -0.59250000       1.91670000      -0.78860000
H       -0.62810000       1.92470000       0.97720000
H       -1.14660000      -1.76620000      -0.39660000
H        1.34240000      -1.52220000      -0.90540000
H        3.52660000      -0.64680000       1.46860000
H        3.27300000       1.14170000       1.41910000
H        0.33300000      -1.60040000       1.64400000
