17
Properties=species:S:1:pos:R:3 gdb_32332=T pbc="F F F"
C        0.71070000       0.72580000       0.57370000
O       -0.60510000       1.00340000       0.10990000
C       -1.45480000      -0.02730000       0.20010000
C       -1.34500000      -1.28820000       0.64870000
O       -2.58630000      -1.91620000       0.48750000
C       -3.45930000      -1.01230000      -0.06220000
N       -4.68370000      -1.18600000      -0.35080000
N       -2.75310000       0.16090000      -0.25630000
C       -3.33530000       1.37390000      -0.78540000
H        1.28590000       1.64190000       0.44150000
H        0.69460000       0.44530000       1.63400000
H        1.16210000      -0.08640000      -0.00900000
H       -0.54930000      -1.86960000       1.07130000
H       -4.97160000      -2.13540000      -0.13040000
H       -3.86160000       1.94140000      -0.00910000
H       -2.54470000       1.99460000      -1.20900000
H       -4.05470000       1.10060000      -1.55950000
