18
Properties=species:S:1:pos:R:3 gdb_37312=T pbc="F F F"
C       -0.05810000       1.28240000      -0.21590000
C        1.28160000       0.66640000      -0.13630000
C        1.67650000       0.16570000       1.25240000
O        2.08720000       1.02640000       2.28600000
C        1.08430000       1.79920000       2.92430000
C       -0.24330000       1.11190000       3.08750000
C       -0.61170000       0.04860000       2.37170000
C        0.29550000      -0.52600000       1.33950000
N        0.00560000      -0.18300000      -0.13020000
H       -0.48110000       1.84970000       0.60590000
H       -0.36710000       1.62230000      -1.20020000
H        1.95100000       0.66040000      -0.99110000
H        2.48130000      -0.56750000       1.16180000
H        1.49330000       2.05740000       3.90850000
H        0.93750000       2.75540000       2.39180000
H       -0.91090000       1.54630000       3.82760000
H       -1.58550000      -0.41190000       2.51640000
H        0.35080000      -1.61430000       1.41350000
