21
Properties=species:S:1:pos:R:3 gdb_111945=T pbc="F F F"
C       -0.08060000       1.65790000       0.03950000
C       -0.09530000       0.12600000       0.02120000
C        0.71300000      -0.51710000       1.17180000
C        0.11170000      -0.21280000       2.52730000
C       -0.34000000      -1.29470000       3.17140000
C       -0.08180000      -2.50820000       2.36500000
O       -0.45070000      -3.63740000       2.59590000
C        0.77340000      -2.07390000       1.15840000
C        0.40100000      -2.82400000      -0.12030000
H        0.94450000       2.04490000       0.01550000
H       -0.60710000       2.06110000      -0.83070000
H       -0.56780000       2.06280000       0.93200000
H       -1.13070000      -0.23320000       0.05940000
H        0.31970000      -0.22350000      -0.93040000
H        1.72650000      -0.09510000       1.12030000
H        0.04280000       0.80290000       2.90280000
H       -0.84220000      -1.32530000       4.13000000
H        1.79770000      -2.36440000       1.43160000
H       -0.59890000      -2.55750000      -0.47420000
H        1.11230000      -2.62730000      -0.92790000
H        0.40040000      -3.89700000       0.08840000
