20
Properties=species:S:1:pos:R:3 gdb_88093=T pbc="F F F"
O       -0.15510000       1.42770000      -0.04950000
C       -0.07160000       0.03120000      -0.02530000
C       -0.44280000      -0.72430000       1.22900000
C       -1.37140000      -0.70880000       0.02800000
C       -2.71380000       0.02110000       0.06570000
C       -3.73640000      -1.12680000      -0.12400000
N       -3.06540000      -2.24460000      -0.82060000
C       -2.35500000      -1.83930000      -2.04110000
C       -1.61610000      -1.97080000      -0.75660000
H        0.58780000       1.77910000       0.45240000
H        0.72030000      -0.38850000      -0.64730000
H        0.09680000      -1.63700000       1.46390000
H       -0.74050000      -0.13260000       2.08880000
H       -2.87390000       0.56840000       0.99650000
H       -2.77180000       0.75470000      -0.74380000
H       -4.06640000      -1.51020000       0.84740000
H       -4.62780000      -0.81830000      -0.67880000
H       -2.27570000      -2.61810000      -2.79420000
H       -2.51580000      -0.84090000      -2.44160000
H       -0.96330000      -2.82280000      -0.58410000
