19
Properties=species:S:1:pos:R:3 gdb_1352=T pbc="F F F"
C        0.12400000       1.47650000      -0.02120000
C       -0.05290000      -0.05110000      -0.00050000
C       -1.53810000      -0.42150000       0.01920000
C        0.71890000      -0.70630000      -1.17940000
C        2.11060000      -1.04350000      -0.58660000
O        2.08170000      -0.65730000       0.78650000
C        0.72400000      -0.64700000       1.19020000
H        1.18300000       1.74690000       0.02640000
H       -0.29870000       1.90870000      -0.93470000
H       -0.38080000       1.94180000       0.83280000
H       -2.05200000      -0.03990000      -0.86970000
H       -1.67920000      -1.50750000       0.04640000
H       -2.04060000       0.00450000       0.89520000
H        0.21060000      -1.61700000      -1.51010000
H        0.78530000      -0.03900000      -2.04290000
H        2.32550000      -2.11890000      -0.67390000
H        2.93010000      -0.49880000      -1.06530000
H        0.65070000      -0.05210000       2.10570000
H        0.36700000      -1.66860000       1.41040000
