23
Properties=species:S:1:pos:R:3 gdb_114695=T pbc="F F F"
C        0.10700000       1.52510000      -0.08380000
C        0.00360000      -0.00040000       0.01340000
C       -1.43290000      -0.52910000      -0.00100000
C       -2.22990000      -0.24090000      -1.30530000
C       -3.27970000      -1.34530000      -1.39160000
C       -2.83400000      -2.68910000      -1.94550000
C       -2.85970000      -2.47560000      -0.46780000
O       -3.77590000      -3.25490000       0.24300000
C       -1.54780000      -2.06050000       0.20960000
H        1.15000000       1.85480000      -0.04650000
H       -0.32480000       1.89860000      -1.01800000
H       -0.42420000       2.01040000       0.74300000
H        0.55860000      -0.46120000      -0.81570000
H        0.49920000      -0.33790000       0.93310000
H       -1.98250000      -0.04780000       0.82120000
H       -2.68760000       0.75220000      -1.28720000
H       -1.56000000      -0.26190000      -2.17580000
H       -4.32700000      -1.08740000      -1.50350000
H       -3.61290000      -3.32950000      -2.34510000
H       -1.87720000      -2.75640000      -2.45630000
H       -4.08800000      -2.73650000       0.99300000
H       -0.68980000      -2.58340000      -0.23210000
H       -1.56610000      -2.32930000       1.27040000
