23
Properties=species:S:1:pos:R:3 gdb_106970=T pbc="F F F"
C        0.09330000       1.32590000       0.23890000
O        0.01230000      -0.01770000      -0.20420000
C       -1.26390000      -0.53710000      -0.13830000
C       -1.86400000      -1.03460000       1.14640000
C       -1.64830000      -1.99540000      -0.00700000
C       -2.72380000      -1.83200000      -1.10480000
C       -2.31540000      -2.57870000      -2.37610000
C       -4.16550000      -2.16130000      -0.72210000
C       -2.35210000      -0.30100000      -1.19560000
H        1.14060000       1.62650000       0.16060000
H       -0.51610000       1.99720000      -0.38300000
H       -0.23490000       1.42470000       1.28330000
H       -1.14580000      -1.15260000       1.95210000
H       -2.86050000      -0.74330000       1.46980000
H       -1.00810000      -2.86390000       0.10140000
H       -2.39610000      -3.66300000      -2.23510000
H       -2.95870000      -2.30120000      -3.21890000
H       -1.27980000      -2.35270000      -2.65030000
H       -4.47570000      -1.64890000       0.19340000
H       -4.85670000      -1.86370000      -1.51900000
H       -4.29040000      -3.23800000      -0.55940000
H       -3.13940000       0.41280000      -0.93100000
H       -1.94160000      -0.03520000      -2.17280000
