19
Properties=species:S:1:pos:R:3 gdb_102195=T pbc="F F F"
O        0.00720000       1.30120000       0.04830000
C       -0.03170000      -0.11320000       0.06310000
C       -1.50670000      -0.53880000      -0.00130000
C       -1.59030000      -2.07110000      -0.19590000
C       -2.86280000      -2.52700000      -0.74990000
N       -3.86420000      -2.88690000      -1.20080000
C       -2.25910000       0.01080000       1.20450000
C       -3.40560000      -0.65940000       1.86200000
N       -2.10730000      -0.55170000       2.55940000
H        0.88860000       1.58810000       0.30250000
H        0.51140000      -0.53260000      -0.79950000
H        0.42860000      -0.52110000       0.97720000
H       -1.93060000      -0.06450000      -0.89470000
H       -0.79790000      -2.39410000      -0.88070000
H       -1.40830000      -2.60230000       0.74630000
H       -2.24470000       1.09650000       1.21270000
H       -4.20350000      -0.05790000       2.28820000
H       -3.72760000      -1.63240000       1.50520000
H       -1.62980000      -1.45040000       2.52910000
