21
Properties=species:S:1:pos:R:3 gdb_101710=T pbc="F F F"
C        0.35300000       1.52870000       0.40440000
C        0.04640000       0.06850000       0.07900000
C        0.66160000      -0.38400000      -1.24750000
O        2.07550000      -0.33940000      -1.21440000
O        0.59480000      -0.83400000       1.05910000
C       -0.18640000      -1.02430000       2.20610000
C        0.45810000      -1.82790000       3.30540000
C        0.27090000      -0.33370000       3.46770000
O        1.37080000       0.51920000       3.39830000
H        1.42440000       1.71670000       0.29110000
H       -0.18110000       2.18750000      -0.28820000
H        0.05230000       1.78460000       1.42270000
H       -1.04160000      -0.08730000       0.03050000
H        0.29920000      -1.39650000      -1.48060000
H        0.34140000       0.28560000      -2.05230000
H        2.34070000      -0.90370000      -0.47900000
H       -1.24860000      -1.15570000       2.00500000
H       -0.15830000      -2.51490000       3.87500000
H        1.47230000      -2.16660000       3.12020000
H       -0.46800000       0.02810000       4.17570000
H        1.75320000       0.40090000       2.51900000
