17
Properties=species:S:1:pos:R:3 gdb_43918=T pbc="F F F"
O        0.20150000      -0.03850000      -0.25130000
C        0.08610000       1.15110000      -0.07930000
C       -1.23090000       1.93360000       0.02550000
C       -0.82830000       3.41590000       0.01890000
C       -1.41220000       4.36000000      -1.07210000
C       -2.04280000       5.11860000       0.10870000
O       -1.45450000       4.20920000       1.06330000
C        0.67490000       3.37980000       0.14180000
C        1.18100000       2.14480000       0.06850000
H       -1.91990000       1.64730000      -0.77250000
H       -1.71190000       1.69880000       0.98040000
H       -0.66820000       4.91680000      -1.64410000
H       -2.11020000       3.88250000      -1.76100000
H       -1.69350000       6.14710000       0.25540000
H       -3.13790000       5.10630000       0.15660000
H        1.23870000       4.29880000       0.26510000
H        2.22450000       1.85770000       0.10220000
