19
Properties=species:S:1:pos:R:3 gdb_19905=T pbc="F F F"
C       -0.25500000       1.56860000       0.13690000
C        0.13900000       0.11850000      -0.17200000
C        0.80310000      -0.54160000       1.03760000
C        0.79990000      -1.93390000       1.55310000
C        0.96870000      -3.09900000       0.56230000
C        1.05870000      -2.66830000      -0.87470000
C        2.20280000      -2.38640000       0.06590000
N        2.09110000      -1.28100000       1.10000000
H        0.62190000       2.16430000       0.41150000
H       -0.72480000       2.04140000      -0.73080000
H       -0.96520000       1.61710000       0.96940000
H       -0.75470000      -0.43710000      -0.47530000
H        0.82630000       0.10950000      -1.02320000
H        0.82490000       0.15190000       1.88070000
H        0.64130000      -2.13620000       2.60950000
H        0.84750000      -4.13030000       0.86480000
H        1.28520000      -3.49200000      -1.54740000
H        0.41860000      -1.92080000      -1.31530000
H        3.20350000      -2.75580000      -0.11680000
