19
Properties=species:S:1:pos:R:3 gdb_53652=T pbc="F F F"
C        0.07160000       0.79370000       1.08820000
C        0.06010000      -0.44230000       0.31830000
C        0.05540000      -1.46710000      -0.31610000
C        0.02600000      -2.69140000      -1.12880000
N       -1.18090000      -3.51790000      -1.05950000
C       -1.37590000      -4.29840000       0.16140000
C       -1.91420000      -3.54400000       1.39640000
C       -2.27120000      -5.43080000      -0.15110000
N       -2.99320000      -6.30510000      -0.37310000
H        0.93400000       0.83460000       1.76260000
H        0.11970000       1.67030000       0.43320000
H       -0.83200000       0.88740000       1.70060000
H        0.16940000      -2.41690000      -2.18130000
H        0.87920000      -3.33120000      -0.87030000
H       -2.00700000      -2.96560000      -1.26340000
H       -0.40060000      -4.73330000       0.41520000
H       -1.22570000      -2.74310000       1.66900000
H       -2.89300000      -3.10660000       1.17750000
H       -2.02820000      -4.22610000       2.24400000
