21
Properties=species:S:1:pos:R:3 gdb_57600=T pbc="F F F"
C        0.13270000       1.50630000       0.21890000
C       -0.00170000      -0.02050000       0.12750000
O        0.49680000      -0.65680000       1.30240000
C       -1.48600000      -0.39060000       0.09240000
O       -2.24850000      -0.00890000      -0.75690000
C        0.66480000      -0.56250000      -1.14880000
C        2.21050000      -0.46430000      -1.29880000
C        2.18910000      -1.86850000      -1.96180000
C        0.78480000      -2.10030000      -1.34430000
H        1.18700000       1.80080000       0.16960000
H       -0.39960000       1.98180000      -0.60850000
H       -0.28550000       1.87180000       1.16130000
H        1.37390000      -0.30660000       1.48550000
H       -1.80480000      -1.05060000       0.92830000
H        0.16460000      -0.10390000      -2.00680000
H        2.61740000       0.37240000      -1.87130000
H        2.71550000      -0.49870000      -0.32690000
H        2.14680000      -1.79670000      -3.05210000
H        2.98480000      -2.56590000      -1.69050000
H        0.84880000      -2.60600000      -0.37720000
H        0.02870000      -2.59410000      -1.95850000
