20
Properties=species:S:1:pos:R:3 gdb_102276=T pbc="F F F"
C       -0.03880000       1.52400000       0.13550000
C       -0.11940000       0.01690000      -0.11980000
C        0.76210000      -0.46710000      -1.29900000
C        0.88230000      -1.99530000      -1.29910000
C        1.72720000      -2.50150000      -2.46370000
N        2.33260000      -3.70580000      -2.27220000
O        1.83040000      -1.87650000      -3.50400000
C        0.15310000       0.04600000      -2.59820000
O        0.35860000       1.14030000      -3.05500000
H        0.97710000       1.81730000       0.42090000
H       -0.30580000       2.09570000      -0.75650000
H       -0.71270000       1.81460000       0.94730000
H        0.18560000      -0.52660000       0.78330000
H       -1.16150000      -0.27740000      -0.30890000
H        1.75510000      -0.01350000      -1.20930000
H        1.28420000      -2.34680000      -0.34240000
H       -0.11550000      -2.44710000      -1.39590000
H        2.25950000      -4.21690000      -1.41080000
H        2.87160000      -4.09740000      -3.02720000
H       -0.59230000      -0.64120000      -3.06040000
