14
Properties=species:S:1:pos:R:3 gdb_133738=T pbc="F F F"
C       -0.81460000       1.12800000       0.16820000
N        0.46450000       0.45070000      -0.03640000
C        0.96870000      -0.24720000       1.12610000
C        0.13490000      -1.39650000       1.55340000
N       -0.58350000      -2.25800000       1.82990000
C        2.40910000      -0.71650000       0.85730000
F        3.21710000       0.32660000       0.68680000
F        2.86800000      -1.44120000       1.88100000
F        2.45940000      -1.47290000      -0.24690000
H       -0.69140000       1.91420000       0.92040000
H       -1.10940000       1.60520000      -0.76900000
H       -1.62750000       0.46160000       0.49420000
H        0.40970000      -0.19350000      -0.81810000
H        1.02770000       0.45660000       1.96450000
