18
Properties=species:S:1:pos:R:3 gdb_71366=T pbc="F F F"
O        0.10880000       1.34840000       0.10200000
C        0.06560000      -0.02110000       0.05000000
C        0.68220000      -0.97210000       1.08550000
C        0.03140000      -1.89000000       0.02000000
C       -1.21590000      -0.93520000      -0.03080000
C       -1.71870000      -0.88000000      -1.46400000
N       -1.27490000       0.35550000      -2.17710000
C       -0.45290000      -0.89100000      -2.22770000
C        0.57990000      -0.95080000      -1.11440000
H       -0.36920000       1.63150000      -0.69430000
H        1.77370000      -0.98670000       1.14690000
H        0.22760000      -0.97340000       2.07980000
H        0.01390000      -2.97820000       0.00650000
H       -1.92470000      -0.93060000       0.79770000
H       -2.62310000      -1.38030000      -1.78990000
H       -1.79860000       0.44160000      -3.04620000
H       -0.32600000      -1.40010000      -3.17600000
H        1.64320000      -0.96150000      -1.35520000
