21
Properties=species:S:1:pos:R:3 gdb_84371=T pbc="F F F"
C        0.53700000       1.40940000       0.04320000
C        0.08380000      -0.05900000       0.00750000
C       -1.44360000      -0.12480000      -0.08080000
C        0.77890000      -0.80770000      -1.18630000
O        1.03340000      -0.02570000      -2.34390000
C        2.00510000      -1.42450000      -0.55790000
C        1.92870000      -1.43330000       0.77130000
C        0.63810000      -0.82390000       1.26310000
O        0.75770000      -0.05730000       2.45230000
H        1.62870000       1.50380000       0.10660000
H        0.20810000       1.93020000      -0.85950000
H        0.10640000       1.91860000       0.90910000
H       -1.80480000       0.37430000      -0.98620000
H       -1.79390000      -1.16270000      -0.10770000
H       -1.90660000       0.36260000       0.78380000
H        0.10970000      -1.59840000      -1.55110000
H        1.72500000       0.60790000      -2.12580000
H        2.80170000      -1.84640000      -1.16170000
H        2.65120000      -1.86360000       1.45680000
H       -0.06790000      -1.61880000       1.53840000
H        1.46920000       0.57850000       2.32330000
