17
Properties=species:S:1:pos:R:3 gdb_46364=T pbc="F F F"
O       -0.04670000      -0.00070000      -0.24180000
C       -0.03490000       1.17810000      -0.06400000
C       -1.06100000       2.26770000       0.27020000
O        0.00690000       3.23610000       0.32640000
C        1.03930000       2.27860000      -0.02430000
C        2.13310000       2.14680000       1.01590000
C        3.31730000       1.25460000       0.57720000
O        4.16990000       2.40410000       0.40090000
C        3.18800000       3.27660000       0.99770000
H       -1.78990000       2.47670000      -0.52330000
H       -1.58740000       2.15010000       1.22550000
H        1.47270000       2.50070000      -1.01110000
H        1.70070000       1.92120000       1.99270000
H        3.68810000       0.57990000       1.35900000
H        3.18680000       0.68540000      -0.35020000
H        2.96450000       4.14540000       0.36840000
H        3.49650000       3.62360000       1.99220000
