18
Properties=species:S:1:pos:R:3 gdb_9542=T pbc="F F F"
C       -0.28660000       1.62880000       0.21000000
C       -0.08540000       0.12730000       0.13710000
C       -1.36370000      -0.62800000      -0.23590000
O       -1.73750000      -0.33990000      -1.56720000
O        0.93520000      -0.22850000      -0.85450000
C        1.76120000      -0.86060000       0.14520000
C        0.75150000      -0.52860000       1.26620000
O        1.16710000       0.38860000       2.24890000
H        0.66470000       2.14140000       0.35920000
H       -0.74600000       1.97340000      -0.72000000
H       -0.94890000       1.88440000       1.04280000
H       -1.20260000      -1.70960000      -0.09310000
H       -2.19480000      -0.32460000       0.41040000
H       -0.94100000      -0.49090000      -2.09320000
H        1.92670000      -1.92420000      -0.06560000
H        2.72610000      -0.35270000       0.26200000
H        0.26980000      -1.40570000       1.71790000
H        1.65920000      -0.08870000       2.92380000
