13
Properties=species:S:1:pos:R:3 gdb_128995=T pbc="F F F"
N        0.02620000       1.34740000       0.00940000
N        1.29070000       1.83370000      -0.00030000
C        2.09970000       0.79070000      -0.01390000
C        1.35450000      -0.42610000      -0.01310000
C        0.00170000      -0.01350000       0.00240000
C       -0.98480000      -1.00200000       0.00680000
N       -0.62550000      -2.27640000      -0.00350000
C        0.69730000      -2.56530000      -0.01810000
N        1.71580000      -1.71950000      -0.02350000
H       -0.74120000       1.99700000       0.02050000
H        3.16990000       0.92800000      -0.02360000
H       -2.04910000      -0.77570000       0.01840000
H        0.94190000      -3.62380000      -0.02610000
