21
Properties=species:S:1:pos:R:3 gdb_95016=T pbc="F F F"
C       -0.75320000       1.34960000      -0.00320000
C        0.00930000       0.02470000      -0.02780000
C        1.05030000      -0.08260000      -1.17350000
O        2.14730000      -0.87290000      -0.71530000
C        2.14580000      -0.94930000       0.69930000
C        2.97670000       0.06450000       1.51140000
C        2.65420000       1.47660000       1.12650000
C        1.67580000       0.73250000       1.99310000
C        0.83540000      -0.31080000       1.22720000
H       -0.08040000       2.19270000       0.18040000
H       -1.26620000       1.52870000      -0.95450000
H       -1.51270000       1.35170000       0.78530000
H       -0.71480000      -0.78810000      -0.16060000
H        0.63570000      -0.57090000      -2.06300000
H        1.39660000       0.91440000      -1.48260000
H        2.33670000      -1.98590000       0.99050000
H        3.86470000      -0.18360000       2.08000000
H        3.23280000       2.22730000       1.65650000
H        2.44020000       1.74740000       0.09960000
H        1.43680000       1.08400000       2.98950000
H        0.28650000      -0.95150000       1.92000000
