22
Properties=species:S:1:pos:R:3 gdb_85860=T pbc="F F F"
C       -0.66590000       1.47280000       0.11110000
C       -0.08390000       0.06710000      -0.01110000
C       -1.15690000      -0.93020000      -0.46490000
C        1.23430000      -0.06100000      -0.84630000
C        1.86070000      -0.93600000       0.28000000
O        3.19450000      -0.71830000       0.66410000
C        0.72560000      -0.46850000       1.19720000
C        0.88260000       0.15490000       2.53110000
N        0.26150000      -1.17920000       2.38180000
H        0.09360000       2.19640000       0.42310000
H       -1.07600000       1.80800000      -0.84840000
H       -1.48250000       1.50600000       0.84280000
H       -1.57110000      -0.63500000      -1.43530000
H       -0.75540000      -1.94330000      -0.56380000
H       -1.98800000      -0.97120000       0.24900000
H        1.15260000      -0.50760000      -1.84010000
H        1.75480000       0.89860000      -0.93300000
H        1.78800000      -2.00590000       0.06510000
H        3.28760000       0.21470000       0.88550000
H        1.85430000       0.14360000       3.01880000
H        0.25200000       1.00210000       2.78790000
H       -0.75070000      -1.09850000       2.46340000
