18
Properties=species:S:1:pos:R:3 gdb_31264=T pbc="F F F"
C       -0.06460000       1.31030000       0.01220000
N        0.49940000      -0.03120000       0.17620000
C        0.82710000      -0.73260000      -0.97120000
C        0.58520000      -2.02060000      -1.35940000
O       -0.20760000      -2.89350000      -0.66420000
C        0.44310000      -4.09060000      -0.25830000
C        1.25010000      -2.20000000      -2.62160000
C        1.82680000      -1.00750000      -2.90830000
O        1.57820000      -0.10140000      -1.90830000
H        0.65210000       1.93780000      -0.52150000
H       -1.01500000       1.32300000      -0.54290000
H       -0.22680000       1.74570000       1.00110000
H       -0.07280000      -0.62130000       0.76720000
H        0.77470000      -4.68250000      -1.12130000
H        1.31350000      -3.87700000       0.37590000
H       -0.28910000      -4.67050000       0.30830000
H        1.27280000      -3.08940000      -3.23150000
H        2.40780000      -0.63620000      -3.73450000
