17
Properties=species:S:1:pos:R:3 gdb_130430=T pbc="F F F"
N       -0.81130000       1.25530000       0.37990000
C        0.32980000       0.44990000      -0.02620000
C        1.05080000      -0.23690000       1.09690000
N        0.78490000      -0.20560000       2.35870000
N        1.75090000      -1.00990000       2.98460000
C        2.51440000      -1.45520000       2.04520000
C        3.70610000      -2.36030000       2.16130000
N        4.02970000      -2.77670000       3.51680000
O        2.13690000      -1.01090000       0.81230000
H       -1.46860000       0.67040000       0.88860000
H       -0.50520000       1.95220000       1.05340000
H        0.00040000      -0.30940000      -0.74660000
H        1.04590000       1.08080000      -0.56750000
H        3.53300000      -3.24810000       1.54010000
H        4.57390000      -1.85450000       1.71940000
H        4.18120000      -1.95250000       4.09190000
H        3.22150000      -3.23700000       3.92650000
