17
Properties=species:S:1:pos:R:3 gdb_30751=T pbc="F F F"
C        0.20110000       1.28650000       0.09420000
O       -0.42150000       0.08890000      -0.38300000
C        0.28510000      -0.60590000      -1.28940000
C        0.64380000      -1.91800000      -1.30140000
N        0.48070000      -2.91270000      -0.31050000
C        1.34120000      -2.11740000      -2.54720000
N        1.81950000      -3.36900000      -2.95440000
C        1.35380000      -0.91290000      -3.18020000
O        0.70380000       0.03200000      -2.41090000
H        1.16940000       1.06280000       0.55810000
H        0.34630000       2.00350000      -0.71930000
H       -0.47660000       1.70810000       0.83830000
H        0.07000000      -2.51320000       0.52630000
H       -0.13750000      -3.65340000      -0.63020000
H        2.17010000      -3.89670000      -2.16230000
H        2.53520000      -3.31030000      -3.66710000
H        1.75390000      -0.56390000      -4.11580000
