23
Properties=species:S:1:pos:R:3 gdb_57330=T pbc="F F F"
C       -0.09690000       1.55200000       0.03390000
C       -0.00730000       0.01410000       0.03480000
C        0.74710000      -0.45560000       1.29270000
C       -1.43920000      -0.55970000       0.06860000
C        0.73590000      -0.50370000      -1.26130000
C        2.21340000      -0.06970000      -1.33330000
N        0.71440000      -1.97610000      -1.28940000
C        0.04680000       0.04020000      -2.46240000
N       -0.48960000       0.41200000      -3.41790000
H        0.89000000       2.02290000       0.05740000
H       -0.63400000       1.92850000      -0.84150000
H       -0.63590000       1.88710000       0.92550000
H        0.14930000      -0.23300000       2.18230000
H        0.93070000      -1.53190000       1.26100000
H        1.70620000       0.05700000       1.41070000
H       -1.99150000      -0.32620000      -0.84760000
H       -1.43940000      -1.64430000       0.21200000
H       -1.99160000      -0.12510000       0.90720000
H        2.77120000      -0.53670000      -0.52010000
H        2.65120000      -0.39520000      -2.28180000
H        2.32240000       1.01380000      -1.27430000
H       -0.22590000      -2.31540000      -1.46360000
H        1.28530000      -2.30870000      -2.06100000
