19
Properties=species:S:1:pos:R:3 gdb_94642=T pbc="F F F"
O        0.34210000       1.04590000      -0.66400000
C        0.08450000      -0.09970000       0.08860000
C       -0.30260000       0.00570000       1.59430000
C       -1.32500000      -1.14180000       1.35860000
C       -1.25910000      -0.84190000      -0.16420000
O       -2.18730000       0.14620000      -0.57910000
C       -3.48200000      -0.36010000      -0.85340000
C       -4.34690000       0.71910000      -1.31030000
C       -5.07810000       1.59260000      -1.68970000
H       -0.51730000       1.45360000      -0.83360000
H        0.92990000      -0.78180000      -0.04630000
H        0.48570000      -0.14790000       2.33380000
H       -0.80460000       0.95520000       1.79510000
H       -0.91620000      -2.12910000       1.59080000
H       -2.30410000      -1.04800000       1.83340000
H       -1.27080000      -1.68840000      -0.86470000
H       -3.42360000      -1.14570000      -1.62490000
H       -3.91610000      -0.82760000       0.04430000
H       -5.72130000       2.36780000      -2.02650000
