21
Properties=species:S:1:pos:R:3 gdb_87826=T pbc="F F F"
C       -0.09130000       1.51080000       0.10050000
C        0.01820000       0.00310000       0.03480000
C        1.38370000      -0.65900000      -0.14570000
C        0.65470000      -0.75430000       1.15430000
O        1.16310000      -0.09470000       2.33010000
C        0.83720000      -1.25420000       3.10800000
C       -0.63890000      -1.51300000       3.08640000
C        0.23270000      -1.98480000       1.93060000
C        0.32470000      -3.40360000       1.45390000
H        0.72760000       1.93420000       0.68820000
H       -0.06150000       1.95450000      -0.90060000
H       -1.02890000       1.81750000       0.57650000
H       -0.81220000      -0.49910000      -0.45740000
H        1.45970000      -1.54230000      -0.77210000
H        2.25290000      -0.00910000      -0.16780000
H        1.53130000      -1.54980000       3.88600000
H       -0.98390000      -2.30840000       3.74130000
H       -1.32550000      -0.67940000       2.96800000
H       -0.47420000      -3.64000000       0.74040000
H        1.28360000      -3.59690000       0.96140000
H        0.22970000      -4.10300000       2.29040000
