21
Properties=species:S:1:pos:R:3 gdb_74983=T pbc="F F F"
C        0.29700000       1.49070000       0.11110000
C        0.03490000       0.02020000       0.02230000
C        0.11160000      -0.74800000      -1.07000000
C       -0.20450000      -2.18460000      -0.78260000
O        0.96540000      -3.04520000      -0.68050000
C        0.91460000      -2.99520000       0.75930000
C       -0.43760000      -2.23440000       0.75570000
C       -1.62730000      -3.03430000       1.26240000
C       -0.38340000      -0.77350000       1.24610000
H        1.10570000       1.70310000       0.82190000
H        0.57490000       1.91280000      -0.85810000
H       -0.58680000       2.02770000       0.47860000
H        0.38870000      -0.39400000      -2.05740000
H       -0.94900000      -2.63180000      -1.45250000
H        0.89600000      -4.00020000       1.19940000
H        1.75890000      -2.43560000       1.18480000
H       -1.59770000      -3.13780000       2.35350000
H       -2.57170000      -2.54350000       1.00140000
H       -1.64040000      -4.04100000       0.83170000
H        0.32030000      -0.63830000       2.07920000
H       -1.35960000      -0.43200000       1.61960000
