19
Properties=species:S:1:pos:R:3 gdb_115657=T pbc="F F F"
O       -0.10510000       1.43970000      -0.11170000
C       -0.05700000       0.07050000       0.25860000
C       -1.43240000      -0.50860000      -0.00630000
C       -1.81980000      -0.68100000      -1.48740000
O       -1.90940000      -2.11750000      -1.33140000
C       -1.58800000      -2.04450000       0.06090000
C       -0.52280000      -3.01600000       0.60990000
O       -1.42630000      -3.49270000       1.62650000
C       -2.52510000      -2.74730000       1.06210000
H        0.76800000       1.82090000       0.01950000
H        0.69690000      -0.47680000      -0.33100000
H        0.20470000      -0.05090000       1.32200000
H       -2.17280000       0.03310000       0.58790000
H       -2.77720000      -0.24350000      -1.78970000
H       -1.04830000      -0.39360000      -2.21070000
H       -0.25840000      -3.79390000      -0.11840000
H        0.39250000      -2.59040000       1.03800000
H       -3.02360000      -2.11520000       1.80720000
H       -3.26370000      -3.39350000       0.57020000
