15
Properties=species:S:1:pos:R:3 gdb_9110=T pbc="F F F"
C       -0.86980000       0.86050000      -1.05900000
N       -0.42590000      -0.39340000      -0.48990000
C        0.81640000      -0.57150000      -0.32340000
N        1.34990000      -1.75440000       0.15460000
C        0.60920000      -2.86020000       0.56680000
N        1.07800000      -3.62930000       1.46530000
C       -0.67200000      -3.17810000      -0.18910000
O       -1.48230000      -3.93870000       0.27510000
H       -0.04960000       1.56990000      -1.25380000
H       -1.39550000       0.67660000      -2.00320000
H       -1.58810000       1.33630000      -0.38230000
H        1.58540000       0.17960000      -0.54830000
H        2.27610000      -1.71250000       0.55690000
H        0.42550000      -4.40590000       1.59630000
H       -0.77350000      -2.73740000      -1.19310000
