17
Properties=species:S:1:pos:R:3 gdb_41445=T pbc="F F F"
C        0.00660000       1.48810000      -0.22980000
C        1.55290000       1.50430000       0.11660000
C        1.34450000       0.18270000       0.90870000
O        1.09840000       0.30720000       2.28550000
C        0.06410000      -0.68300000       2.51200000
C       -0.17240000      -1.21470000       1.10830000
C        1.26660000      -1.28990000       0.41830000
O        0.72520000      -0.85340000      -0.85940000
C        0.03090000      -0.00950000       0.13350000
H       -0.57550000       2.07620000       0.48290000
H       -0.29870000       1.73610000      -1.24820000
H        2.17970000       1.37850000      -0.76450000
H        1.91320000       2.33870000       0.71840000
H        0.42720000      -1.45590000       3.19980000
H       -0.81170000      -0.19800000       2.95740000
H       -0.91180000      -1.99740000       0.93920000
H        1.96330000      -2.13430000       0.41920000
