15
Properties=species:S:1:pos:R:3 gdb_21254=T pbc="F F F"
C        0.16070000       0.68070000       0.65520000
O        0.07020000       0.79940000      -0.75770000
C        0.58600000      -0.22820000      -1.45260000
C        1.19430000      -1.41620000      -1.09510000
C        1.49250000      -2.02440000      -2.34580000
N        2.18340000      -3.22180000      -2.54260000
N        1.10010000      -1.29140000      -3.37830000
N        0.55160000      -0.17640000      -2.79960000
H       -0.38280000      -0.20320000       1.01000000
H        1.20680000       0.61360000       0.97700000
H       -0.29380000       1.58130000       1.06950000
H        1.41400000      -1.77950000      -0.10630000
H        1.89250000      -3.95620000      -1.91090000
H        2.10190000      -3.53340000      -3.50270000
H        0.16570000       0.55390000      -3.37050000
