18
Properties=species:S:1:pos:R:3 gdb_73419=T pbc="F F F"
C        0.02490000       1.44710000      -0.04160000
C       -0.01740000      -0.06020000      -0.01580000
O        0.33160000      -0.58440000      -1.29090000
C       -0.14900000      -1.93700000      -1.36190000
C       -0.85710000      -2.17850000      -0.02620000
C        0.07640000      -2.13270000       1.18570000
C        0.64550000      -0.75330000       1.18470000
N       -0.66310000      -1.02740000       1.87970000
C       -1.28900000      -0.78490000       0.48620000
H        1.03510000       1.79700000      -0.27590000
H       -0.65590000       1.83470000      -0.80490000
H       -0.26440000       1.85120000       0.93250000
H       -0.82560000      -2.02850000      -2.22160000
H        0.69260000      -2.62520000      -1.51200000
H       -1.60250000      -2.97260000      -0.01220000
H        0.52000000      -2.95500000       1.73490000
H        1.53550000      -0.47070000       1.73530000
H       -2.29350000      -0.37860000       0.38980000
