19
Properties=species:S:1:pos:R:3 gdb_91974=T pbc="F F F"
C        0.74180000       1.46800000      -0.34120000
C        0.14360000       0.09940000       0.00840000
C        0.25460000      -0.95320000      -1.12930000
C        1.32080000      -1.93990000      -0.68370000
C        2.63320000      -1.41840000      -0.22830000
N        1.60500000      -1.79200000       0.75940000
C        0.78750000      -0.65470000       1.23530000
C        1.55160000       0.21030000       2.13730000
N        2.14380000       0.90830000       2.84260000
H        1.78790000       1.40880000      -0.65400000
H        0.17740000       1.91440000      -1.16620000
H        0.69150000       2.15220000       0.51000000
H       -0.91040000       0.26450000       0.24890000
H       -0.69380000      -1.48400000      -1.25970000
H        0.49410000      -0.48330000      -2.08830000
H        1.25070000      -2.96170000      -1.04560000
H        3.50210000      -2.06920000      -0.22380000
H        2.86260000      -0.36820000      -0.37450000
H       -0.02070000      -1.09810000       1.82820000
