18
Properties=species:S:1:pos:R:3 gdb_67979=T pbc="F F F"
C        0.04200000       1.49330000      -0.13070000
C        0.02450000      -0.00010000       0.03250000
O        0.43910000      -0.64190000      -1.19670000
C        0.36990000      -1.97930000      -0.88580000
N        0.63890000      -2.95100000      -1.64280000
C       -0.09200000      -1.98050000       0.53590000
C        0.64990000      -0.78040000       1.23260000
C       -0.62410000      -0.50630000       2.06590000
C       -1.15230000      -0.82330000       0.64710000
H        1.04890000       1.83620000      -0.38630000
H       -0.63380000       1.79570000      -0.93600000
H       -0.27050000       1.99290000       0.78920000
H        0.93020000      -2.61710000      -2.56380000
H       -0.23540000      -2.92840000       1.04680000
H        1.69220000      -0.76650000       1.55390000
H       -0.85610000      -1.24630000       2.83450000
H       -0.77180000       0.50690000       2.44660000
H       -2.18400000      -0.85870000       0.29480000
