18
Properties=species:S:1:pos:R:3 gdb_92925=T pbc="F F F"
O       -0.08130000       1.47830000       0.08880000
C        0.03420000       0.06490000       0.03550000
C        0.74520000      -0.50300000       1.27120000
C        0.54200000      -1.98790000       1.41480000
C       -0.38310000      -2.67870000       0.75290000
C       -1.36360000      -2.03140000      -0.21090000
C       -1.38260000      -0.49310000      -0.06030000
C       -1.05510000      -2.43520000      -1.59210000
N       -0.80680000      -2.75330000      -2.67550000
H        0.80500000       1.85360000       0.08810000
H        0.58860000      -0.24170000      -0.86610000
H        1.81940000      -0.27890000       1.22750000
H        0.36390000       0.01900000       2.16060000
H        1.19700000      -2.51060000       2.10740000
H       -0.47070000      -3.75330000       0.87910000
H       -2.37080000      -2.41340000       0.00060000
H       -1.92690000      -0.24040000       0.85610000
H       -1.90860000      -0.02900000      -0.89790000
