22
Properties=species:S:1:pos:R:3 gdb_60596=T pbc="F F F"
O       -0.43210000       1.27070000      -0.11180000
C       -0.07280000      -0.10730000      -0.04290000
C        0.70300000      -0.53900000      -1.28570000
C        0.36540000       0.01120000      -2.61640000
N        1.63490000       0.38300000      -1.95460000
C        0.67270000      -0.46160000       1.24340000
C        1.97270000       0.30060000       1.64320000
C        1.50530000       0.22670000       3.12200000
C        0.06570000      -0.06060000       2.61650000
H        0.26680000       1.78490000       0.30520000
H       -1.02840000      -0.65080000      -0.03800000
H        1.07170000      -1.56230000      -1.23250000
H        0.47420000      -0.60330000      -3.50540000
H       -0.41910000       0.76060000      -2.65810000
H        1.50650000       1.31180000      -1.55720000
H        0.87910000      -1.53750000       1.22720000
H        2.92890000      -0.15110000       1.37260000
H        1.98350000       1.33760000       1.28480000
H        1.93480000      -0.63860000       3.63460000
H        1.65820000       1.10970000       3.74660000
H       -0.52450000       0.85640000       2.52760000
H       -0.52840000      -0.80780000       3.14790000
