15
Properties=species:S:1:pos:R:3 gdb_2752=T pbc="F F F"
C       -0.15300000       1.54940000      -0.02720000
C       -0.02150000       0.03360000      -0.04340000
C        1.19960000      -0.50970000      -0.83610000
N        1.94340000      -0.63410000       0.43930000
C        0.68360000      -0.59910000       1.20810000
C        0.72620000       0.16660000       2.45510000
N        0.73550000       0.77080000       3.44050000
H        0.80450000       2.02350000       0.20790000
H       -0.48240000       1.91040000      -1.00690000
H       -0.88380000       1.87710000       0.71820000
H       -0.97620000      -0.43770000      -0.28280000
H        0.98670000      -1.46440000      -1.33610000
H        1.66250000       0.17290000      -1.55610000
H        2.50470000      -1.46940000       0.56140000
H        0.26010000      -1.58820000       1.43520000
