21
Properties=species:S:1:pos:R:3 gdb_63953=T pbc="F F F"
C       -0.17790000       1.57190000      -0.02810000
C        0.02080000       0.05720000      -0.01660000
O       -1.24990000      -0.58150000       0.15900000
C        0.76450000      -0.50030000      -1.28380000
C        1.88920000      -1.34940000      -0.66100000
C        1.22870000      -1.91460000       0.60260000
C        0.90420000      -0.49890000       1.13290000
C        2.31040000       0.11420000       1.05930000
O        2.87990000      -0.44480000      -0.13890000
H        0.75900000       2.11390000      -0.17980000
H       -0.84850000       1.85460000      -0.84890000
H       -0.63380000       1.90770000       0.90840000
H       -1.81840000      -0.30800000      -0.56880000
H        0.07660000      -1.10720000      -1.88150000
H        1.18040000       0.28730000      -1.91710000
H        2.38880000      -2.04430000      -1.33670000
H        0.33500000      -2.50820000       0.41080000
H        1.92810000      -2.46980000       1.23230000
H        0.42660000      -0.42440000       2.11010000
H        2.32260000       1.20730000       0.99760000
H        2.91480000      -0.18110000       1.92780000
