17
Properties=species:S:1:pos:R:3 gdb_126175=T pbc="F F F"
C        0.00730000       1.55420000       0.07850000
C       -0.07040000       0.03360000      -0.06600000
C        0.74990000      -0.48990000      -1.25840000
O        2.11630000      -0.10270000      -1.17680000
C        0.63490000      -1.98020000      -1.39720000
C        0.05880000      -2.79040000      -2.32090000
O        0.25520000      -4.06180000      -1.97280000
N        1.00770000      -4.03160000      -0.76260000
N        1.20270000      -2.82630000      -0.46390000
H        1.04620000       1.87860000       0.17500000
H       -0.41880000       2.05700000      -0.79700000
H       -0.54520000       1.89240000       0.95970000
H        0.29540000      -0.45800000       0.84470000
H       -1.11150000      -0.28880000      -0.19210000
H        0.37560000      -0.02660000      -2.17890000
H        2.51440000      -0.60810000      -0.45770000
H       -0.49260000      -2.60790000      -3.22840000
