12
Properties=species:S:1:pos:R:3 gdb_11170=T pbc="F F F"
N       -0.11260000       1.27840000      -0.12220000
C        0.00450000       0.04290000       0.03400000
O        1.15130000      -0.67790000       0.20540000
C        0.82200000      -2.02110000       0.54280000
C       -0.64050000      -2.13930000       0.05970000
O       -1.08140000      -0.78750000       0.05520000
C       -0.75690000      -2.73820000      -1.28090000
N       -0.83520000      -3.23760000      -2.31900000
H        0.79340000       1.73650000      -0.06590000
H        1.50630000      -2.69940000       0.03320000
H        0.88810000      -2.16390000       1.62650000
H       -1.26640000      -2.70450000       0.75420000
