20
Properties=species:S:1:pos:R:3 gdb_17925=T pbc="F F F"
C       -0.05060000       1.55130000       0.01180000
C       -0.00350000       0.05180000       0.00290000
C        0.64680000      -0.86130000      -1.11000000
C        1.54020000      -1.51190000      -0.02500000
C        0.67490000      -0.87310000       1.08930000
C       -0.68240000      -1.59000000       1.29620000
C       -1.24300000      -0.92790000       0.01340000
C       -0.71490000      -1.57680000      -1.28960000
H        0.95760000       1.98300000       0.00250000
H       -0.58390000       1.93980000      -0.86440000
H       -0.56330000       1.92990000       0.90440000
H        1.13840000      -0.47920000      -2.00660000
H        1.63610000      -2.60350000      -0.03210000
H        2.54480000      -1.07730000      -0.03550000
H        1.18950000      -0.50030000       1.97690000
H       -0.67790000      -2.68480000       1.34350000
H       -1.19270000      -1.20810000       2.18600000
H       -2.28390000      -0.59950000       0.02840000
H       -1.24780000      -1.18640000      -2.16230000
H       -0.71120000      -2.67110000      -1.34810000
