18
Properties=species:S:1:pos:R:3 gdb_125900=T pbc="F F F"
C        0.18580000       1.47460000       0.05990000
C       -0.05210000      -0.03430000      -0.03560000
C        0.68320000      -0.65730000      -1.28190000
C        1.88530000      -1.23760000      -0.61160000
C        1.74180000      -1.26430000       0.75080000
N        0.48910000      -0.75830000       1.16180000
C        2.90160000      -1.89340000       1.24160000
N        3.71240000      -2.23160000       0.22850000
N        3.06720000      -1.83820000      -0.89150000
H        1.25840000       1.69330000       0.10230000
H       -0.23720000       1.99310000      -0.80710000
H       -0.28640000       1.89000000       0.95700000
H       -1.12770000      -0.22460000      -0.10280000
H        0.06410000      -1.42640000      -1.76100000
H        0.89430000       0.10730000      -2.03780000
H        0.53010000      -0.15250000       1.97380000
H        3.20120000      -2.11180000       2.25540000
H        3.50720000      -1.99690000      -1.78090000
