20
Properties=species:S:1:pos:R:3 gdb_98688=T pbc="F F F"
C       -0.33540000       1.40420000       0.16730000
N       -0.20460000      -0.02930000       0.33290000
C        0.92290000      -0.61380000       0.83450000
O        1.91150000       0.02970000       1.15950000
C        0.84570000      -2.10440000       0.94550000
C        2.14780000      -2.89290000       0.98580000
C        1.28620000      -2.82290000       2.20990000
C        1.73470000      -2.08150000       3.44600000
O        0.46750000      -3.93910000       2.46660000
H        0.62950000       1.84790000       0.41440000
H       -0.59640000       1.66100000      -0.86520000
H       -1.09920000       1.82060000       0.83480000
H       -0.99270000      -0.61590000       0.11600000
H        0.00910000      -2.58670000       0.45060000
H        2.17510000      -3.82710000       0.43720000
H        3.04850000      -2.28920000       0.96420000
H        2.27770000      -1.17410000       3.17940000
H        0.86970000      -1.81250000       4.06070000
H        2.39260000      -2.71970000       4.04930000
H        0.99820000      -4.58120000       2.95190000
