20
Properties=species:S:1:pos:R:3 gdb_32444=T pbc="F F F"
C        0.02130000       1.36490000      -0.06030000
O        0.01760000      -0.04530000      -0.02930000
C       -1.21530000      -0.62190000      -0.00730000
C       -2.45900000      -0.03270000      -0.01070000
N       -3.37690000      -1.06630000       0.01890000
C       -2.73630000      -2.28050000       0.04070000
C       -3.50830000      -3.55890000       0.07470000
C       -1.37520000      -2.04090000       0.02510000
C       -0.24840000      -3.02690000       0.03820000
H        1.06600000       1.68140000      -0.07520000
H       -0.48690000       1.74670000      -0.95760000
H       -0.47330000       1.78590000       0.82690000
H       -2.77050000       0.99680000      -0.03100000
H       -4.37350000      -0.94500000       0.02390000
H       -4.15910000      -3.67170000      -0.80200000
H       -2.82990000      -4.41430000       0.08830000
H       -4.14570000      -3.63280000       0.96520000
H        0.38870000      -2.92290000      -0.84800000
H        0.40210000      -2.88430000       0.90910000
H       -0.61410000      -4.05720000       0.06360000
