20
Properties=species:S:1:pos:R:3 gdb_104348=T pbc="F F F"
C        0.03760000       1.36760000       0.17190000
O       -0.07420000      -0.01490000      -0.08960000
C        0.62960000      -0.54690000      -1.21440000
C       -0.05380000      -0.16230000      -2.52960000
C        2.10300000      -0.12380000      -1.21580000
O        2.75880000      -0.51190000      -0.00670000
C        2.43170000      -1.74990000       0.44880000
N        1.52120000      -2.52940000       0.05520000
C        0.60730000      -2.06610000      -0.98380000
H        1.03980000       1.64590000       0.52490000
H       -0.21810000       1.99100000      -0.69690000
H       -0.67810000       1.58620000       0.96840000
H       -0.05970000       0.92150000      -2.68130000
H        0.45620000      -0.61410000      -3.38610000
H       -1.09060000      -0.51020000      -2.52230000
H        2.61280000      -0.58830000      -2.06960000
H        2.22810000       0.95820000      -1.29480000
H        3.09620000      -2.02870000       1.26430000
H       -0.40870000      -2.35320000      -0.69320000
H        0.83270000      -2.59540000      -1.91810000
