19
Properties=species:S:1:pos:R:3 gdb_95011=T pbc="F F F"
O        0.11400000       1.42400000      -0.17190000
C        0.06770000       0.00990000      -0.01110000
C        0.74930000      -0.46270000       1.27300000
O       -0.12240000      -0.32650000       2.39050000
C       -1.42720000      -0.77310000       2.11910000
C       -1.69400000      -1.73730000       0.91470000
C       -3.15960000      -1.23550000       0.95660000
C       -2.30280000       0.04460000       1.12440000
C       -1.37170000      -0.50790000      -0.00670000
H       -0.28510000       1.81280000       0.61460000
H        0.61530000      -0.39000000      -0.87160000
H        1.05290000      -1.51500000       1.16290000
H        1.63860000       0.13620000       1.48490000
H       -1.88730000      -1.03340000       3.07590000
H       -1.35470000      -2.76680000       0.79040000
H       -3.71850000      -1.31870000       0.02190000
H       -3.76440000      -1.54170000       1.81510000
H       -2.66050000       1.06900000       1.24270000
H       -1.81990000      -0.52610000      -1.00420000
