15
Properties=species:S:1:pos:R:3 gdb_75818=T pbc="F F F"
O        0.13530000       1.30150000      -0.29470000
C        0.13980000      -0.07230000      -0.02790000
C        0.09140000      -0.50360000       1.45020000
O        0.74580000      -0.36860000       2.43180000
O       -1.10720000      -1.15940000       1.30620000
C       -1.24860000      -0.73000000      -0.08390000
C       -2.51240000       0.03890000      -0.47740000
O       -2.80580000      -0.92800000      -1.51180000
C       -1.70490000      -1.76800000      -1.11200000
H        0.96060000       1.67730000       0.03150000
H        0.90400000      -0.61730000      -0.60010000
H       -3.27470000       0.05830000       0.31030000
H       -2.35140000       1.04520000      -0.87490000
H       -1.01400000      -1.97420000      -1.93800000
H       -2.03480000      -2.71200000      -0.66130000
