19
Properties=species:S:1:pos:R:3 gdb_33406=T pbc="F F F"
C       -0.29560000      -1.01450000       0.66540000
C       -0.18530000       0.14270000       0.35540000
C       -0.06440000       1.55130000      -0.05340000
C        1.38740000       1.90570000      -0.34740000
C        1.88140000       3.26420000      -0.03360000
N        2.33980000       2.10180000       0.75150000
N       -0.89050000       1.95250000      -1.20430000
C       -1.09710000       1.00090000      -2.29360000
C       -2.21180000       1.35570000      -1.37280000
H       -0.37970000      -2.03280000       0.95600000
H       -0.39720000       2.17620000       0.78800000
H        1.80350000       1.37390000      -1.19990000
H        2.64310000       3.72560000      -0.65510000
H        1.18120000       3.96250000       0.41780000
H        1.85340000       2.06740000       1.64500000
H       -1.04380000       1.42450000      -3.29220000
H       -0.68240000       0.00080000      -2.18980000
H       -2.52260000       0.58750000      -0.66860000
H       -2.99140000       2.04530000      -1.68310000
