24
Properties=species:S:1:pos:R:3 gdb_9844=T pbc="F F F"
C       -0.18420000       1.59630000      -0.17810000
C       -0.09510000       0.06650000      -0.14720000
C        0.87460000      -0.53600000      -1.18390000
C        2.33790000      -0.15500000      -0.90680000
C        0.69790000      -2.05230000      -1.31540000
C        0.99540000      -2.89010000      -0.08320000
C       -0.41040000      -2.53580000      -2.22090000
C        1.03210000      -2.66270000      -2.65610000
H        0.76960000       2.06830000       0.07730000
H       -0.47570000       1.95520000      -1.17190000
H       -0.92990000       1.95930000       0.53640000
H        0.19980000      -0.25670000       0.85950000
H       -1.09350000      -0.35290000      -0.32250000
H        0.60530000      -0.10890000      -2.16130000
H        2.48970000       0.92630000      -0.97080000
H        2.65240000      -0.47060000       0.09420000
H        3.00790000      -0.62740000      -1.63220000
H        0.33960000      -2.62890000       0.75440000
H        0.84630000      -3.95350000      -0.29520000
H        2.03090000      -2.76570000       0.25200000
H       -0.94340000      -3.44050000      -1.94670000
H       -1.02730000      -1.79570000      -2.72100000
H        1.38270000      -2.00620000      -3.44620000
H        1.47540000      -3.65300000      -2.67650000
