19
Properties=species:S:1:pos:R:3 gdb_73333=T pbc="F F F"
O        0.08110000       1.35820000      -0.01180000
C       -0.04090000      -0.03710000      -0.02110000
C        0.78340000      -0.78110000      -1.11680000
C       -0.22420000      -1.80430000      -1.77130000
C       -1.04630000      -2.00160000      -0.52090000
C       -0.67390000      -2.82180000       0.47270000
C       -0.53440000      -2.06850000       1.78500000
C       -0.65100000      -0.61910000       1.30680000
C       -1.40700000      -0.62570000       0.00910000
H        0.89000000       1.58300000       0.46010000
H        1.13520000      -0.02800000      -1.82970000
H        1.65380000      -1.31580000      -0.72340000
H       -0.76740000      -1.33480000      -2.59740000
H        0.26670000      -2.70960000      -2.13520000
H       -0.19500000      -3.78350000       0.31540000
H       -1.29610000      -2.28720000       2.54820000
H        0.43550000      -2.31180000       2.23970000
H       -0.84970000       0.16520000       2.03210000
H       -2.32980000      -0.10530000      -0.22100000
