16
Properties=species:S:1:pos:R:3 gdb_17107=T pbc="F F F"
O        0.12810000       1.36400000       0.05400000
C        0.00140000      -0.04410000       0.11620000
C       -1.41180000      -0.51520000       0.08180000
C       -2.57400000       0.14440000       0.10650000
C       -3.58430000      -1.01290000       0.00300000
C       -3.02220000      -2.01790000       1.05320000
C       -1.90610000      -1.97770000      -0.03250000
O       -2.96820000      -1.85450000      -1.03370000
H       -0.30380000       1.65200000      -0.75750000
H        0.57400000      -0.53980000      -0.68770000
H        0.48240000      -0.34640000       1.05650000
H       -2.78250000       1.20020000       0.18930000
H       -4.64370000      -0.81000000      -0.14580000
H       -2.79650000      -1.65730000       2.05890000
H       -3.56170000      -2.96780000       1.06300000
H       -1.19660000      -2.78470000      -0.21540000
