17
Properties=species:S:1:pos:R:3 gdb_55129=T pbc="F F F"
N       -0.14940000       1.29980000       0.09610000
C        0.14400000      -0.04260000       0.09640000
O        1.27500000      -0.47640000       0.08790000
C       -1.11930000      -0.89640000       0.11390000
N       -0.95980000      -2.37800000       0.23970000
C       -1.91040000      -2.38250000       1.37350000
C       -1.26200000      -1.61920000       2.50490000
C       -1.95300000      -0.86340000       1.40430000
O       -2.94350000       0.08820000       1.58910000
H        0.61340000       1.94020000       0.24940000
H       -1.08210000       1.61330000       0.31440000
H       -1.76210000      -0.61900000      -0.73000000
H       -1.34980000      -2.84240000      -0.57370000
H       -2.66020000      -3.15070000       1.51220000
H       -1.82570000      -1.64310000       3.43430000
H       -0.17960000      -1.62060000       2.60740000
H       -2.81990000       0.49210000       2.45410000
