18
Properties=species:S:1:pos:R:3 gdb_53358=T pbc="F F F"
C       -0.25070000       1.32480000       0.34420000
C       -0.06340000      -0.10580000       0.15050000
C        0.08940000      -1.28990000      -0.00900000
C        0.26860000      -2.73100000      -0.21270000
C        0.88590000      -3.46140000       1.01920000
C       -0.33350000      -3.93630000       1.82000000
C       -1.45530000      -4.05020000       0.78350000
O       -2.54380000      -4.55800000       0.92600000
N       -0.99550000      -3.44830000      -0.36570000
H        0.49300000       1.90210000      -0.21570000
H       -1.24240000       1.64280000       0.00440000
H       -0.15870000       1.59920000       1.40070000
H        0.89600000      -2.88860000      -1.09760000
H        1.46210000      -4.31900000       0.66090000
H        1.55630000      -2.80560000       1.57480000
H       -0.18930000      -4.88650000       2.33650000
H       -0.64870000      -3.19950000       2.56690000
H       -1.65260000      -3.21080000      -1.09330000
