16
Properties=species:S:1:pos:R:3 gdb_10133=T pbc="F F F"
C        0.05980000       1.50050000      -0.09130000
C        0.03850000      -0.01090000       0.02350000
O        0.64480000      -0.54070000      -1.17250000
C        0.71920000      -1.87680000      -1.25900000
N        0.29710000      -2.66950000      -0.37080000
C        0.40840000      -4.10520000      -0.52660000
C        1.35070000      -2.26920000      -2.51190000
N        1.84450000      -2.64140000      -3.48840000
H        1.08470000       1.87140000      -0.17820000
H       -0.50370000       1.83400000      -0.96690000
H       -0.39350000       1.94250000       0.80070000
H        0.60060000      -0.36950000       0.89200000
H       -0.97890000      -0.40680000       0.10780000
H        0.98270000      -4.50860000       0.31440000
H       -0.59270000      -4.54590000      -0.46830000
H        0.88140000      -4.42710000      -1.46320000
