18
Properties=species:S:1:pos:R:3 gdb_56753=T pbc="F F F"
O       -0.04780000       1.43610000       0.03910000
C        0.04480000       0.02370000       0.04280000
C        0.68730000      -0.47680000      -1.19360000
N        1.22510000      -0.85550000      -2.14380000
C        0.77020000      -0.51080000       1.26360000
C        0.37060000      -0.26500000       2.74780000
C        1.65620000      -1.14170000       2.78800000
C        1.03130000      -1.99720000       1.64690000
C        2.24540000      -0.21770000       1.68270000
H        0.84860000       1.79190000       0.05050000
H       -0.99070000      -0.33600000       0.05220000
H        0.45890000       0.76140000       3.11120000
H       -0.55690000      -0.73480000       3.08620000
H        2.17230000      -1.50770000       3.67460000
H        0.15230000      -2.59400000       1.90530000
H        1.72280000      -2.55140000       1.00790000
H        3.02720000      -0.64250000       1.04830000
H        2.47810000       0.80890000       1.98130000
