22
Properties=species:S:1:pos:R:3 gdb_108084=T pbc="F F F"
C        0.06990000       1.39430000      -0.30110000
C       -0.06120000      -0.03300000       0.24750000
C       -1.47920000      -0.52060000       0.25240000
C       -2.64100000      -0.06080000       1.13730000
C       -3.43500000      -1.24520000       0.52850000
C       -3.52570000      -0.84480000      -0.94980000
N       -2.04060000      -1.00080000      -1.07570000
C       -2.04240000      -1.89110000       0.12910000
C       -1.47780000      -3.26960000       0.18170000
H        1.11380000       1.72210000      -0.30120000
H       -0.30570000       1.44290000      -1.32730000
H       -0.50330000       2.10640000       0.30210000
H        0.54300000      -0.71550000      -0.36050000
H        0.33820000      -0.07980000       1.26920000
H       -2.40310000      -0.22260000       2.19270000
H       -3.05520000       0.94530000       1.00310000
H       -4.25740000      -1.71010000       1.07040000
H       -4.00710000      -1.59580000      -1.58230000
H       -3.91910000       0.14970000      -1.19500000
H       -0.48350000      -3.28840000      -0.27520000
H       -1.38640000      -3.62220000       1.21520000
H       -2.10920000      -3.98200000      -0.36150000
