17
Properties=species:S:1:pos:R:3 gdb_22902=T pbc="F F F"
C       -0.07390000       1.41440000      -0.03270000
N        0.00070000      -0.02500000      -0.08690000
C       -1.16490000      -0.86520000       0.12140000
C       -0.65180000      -2.29570000      -0.15430000
C        0.84740000      -2.15770000      -0.05460000
N        1.59400000      -3.18100000       0.09140000
O        2.94610000      -2.89300000       0.16090000
C        1.20380000      -0.69360000      -0.12900000
O        2.29640000      -0.17380000      -0.20990000
H        0.93570000       1.80330000      -0.17460000
H       -0.73040000       1.80300000      -0.82050000
H       -0.45980000       1.75790000       0.93650000
H       -1.54320000      -0.75940000       1.14900000
H       -1.97680000      -0.57560000      -0.55550000
H       -1.05160000      -3.03300000       0.54340000
H       -0.93360000      -2.60990000      -1.16520000
H        3.33210000      -3.76820000       0.28070000
