19
Properties=species:S:1:pos:R:3 gdb_51891=T pbc="F F F"
O        0.01020000      -0.02280000       0.09540000
C        0.01730000       1.16860000       0.16770000
O        1.07590000       1.91570000      -0.19880000
C        0.98010000       3.34500000      -0.09680000
C        2.15900000       3.87230000       0.71800000
C        2.19560000       5.40670000       0.64940000
C        2.13010000       5.87330000      -0.80620000
O        0.98900000       5.34660000      -1.46980000
C        0.99770000       3.93470000      -1.51220000
H       -0.82890000       1.77840000       0.54160000
H        0.03300000       3.61670000       0.38910000
H        2.09270000       3.51930000       1.75210000
H        3.08010000       3.45400000       0.29340000
H        1.34210000       5.82780000       1.19440000
H        3.10510000       5.78940000       1.12490000
H        2.04240000       6.96100000      -0.87260000
H        3.04710000       5.57180000      -1.34100000
H        1.88670000       3.55500000      -2.04300000
H        0.10960000       3.62610000      -2.07110000
