20
Properties=species:S:1:pos:R:3 gdb_31952=T pbc="F F F"
C       -0.16100000       1.79030000      -0.18620000
C       -0.26420000       0.25770000      -0.07600000
C        0.60800000      -0.48510000      -1.03590000
C        0.30660000      -1.26460000      -2.12390000
C        1.52810000      -1.72670000      -2.71290000
C        2.54140000      -1.20150000      -1.94720000
N        1.99330000      -0.45460000      -0.94090000
O        3.89080000      -1.27850000      -1.99220000
C        4.40380000      -2.06810000      -3.05030000
H        0.85860000       2.13860000       0.01140000
H       -0.43390000       2.12510000      -1.19140000
H       -0.82430000       2.28110000       0.53350000
H       -0.03910000      -0.04210000       0.95790000
H       -1.29840000      -0.05060000      -0.26050000
H       -0.69130000      -1.48800000      -2.47120000
H        1.63560000      -2.36050000      -3.57740000
H        2.53470000       0.02300000      -0.24130000
H        4.05740000      -3.10670000      -2.97160000
H        4.10060000      -1.66620000      -4.02560000
H        5.49080000      -2.03710000      -2.96340000
