19
Properties=species:S:1:pos:R:3 gdb_47608=T pbc="F F F"
O       -0.25580000       0.60640000       1.20500000
C       -0.15470000       1.41990000       0.32670000
O       -1.27220000       1.85640000      -0.30990000
C       -1.15740000       2.90480000      -1.28810000
C       -0.30610000       4.05200000      -0.75150000
C        1.10850000       3.52310000      -0.50390000
C        1.84700000       3.82020000       0.83390000
C        2.17920000       2.30670000       0.97650000
C        1.16200000       2.00110000      -0.15350000
H       -0.73110000       2.49930000      -2.21580000
H       -2.18530000       3.21050000      -1.49480000
H       -0.31880000       4.88900000      -1.45710000
H       -0.76040000       4.40620000       0.18130000
H        1.74920000       3.73290000      -1.36510000
H        2.69080000       4.51180000       0.78640000
H        1.15910000       4.16940000       1.61000000
H        3.20420000       2.06690000       0.68580000
H        1.96300000       1.83260000       1.93440000
H        1.51940000       1.34740000      -0.95650000
