14
Properties=species:S:1:pos:R:3 gdb_133088=T pbc="F F F"
C       -0.02270000       1.37710000       0.02530000
O        0.02630000      -0.04990000      -0.04300000
C        0.62940000      -0.59440000      -1.09910000
N        1.15370000       0.19790000      -2.03280000
C        1.74030000      -0.42950000      -3.05880000
C        1.81100000      -1.80750000      -3.16640000
C        1.21690000      -2.49870000      -2.11100000
F        1.23230000      -3.82220000      -2.12190000
N        0.63170000      -1.93420000      -1.08680000
H        0.98360000       1.80320000       0.04640000
H       -0.56090000       1.79220000      -0.83080000
H       -0.55090000       1.60110000       0.95250000
H        2.17150000       0.20800000      -3.82660000
H        2.28400000      -2.31660000      -3.99380000
