21
Properties=species:S:1:pos:R:3 gdb_40511=T pbc="F F F"
C       -0.17600000       1.26330000      -0.42150000
C        1.21110000       1.06620000       0.13340000
C        0.24280000      -0.09530000       0.08510000
C       -0.30950000      -0.70050000       1.33910000
C        0.28990000      -2.06580000       1.80640000
C       -1.14370000      -2.67260000       1.91430000
C       -1.74290000      -1.30700000       1.51690000
O       -2.00050000      -0.46020000       2.65440000
C       -0.71840000       0.19310000       2.53000000
H       -0.88330000       1.84060000       0.16390000
H       -0.28830000       1.38860000      -1.49280000
H        2.05190000       1.06730000      -0.55100000
H        1.43090000       1.49970000       1.10370000
H        0.44500000      -0.82950000      -0.69150000
H        0.90890000      -2.54280000       1.04220000
H        0.86750000      -2.02440000       2.73400000
H       -1.33450000      -3.46230000       1.18210000
H       -1.45800000      -3.02050000       2.90050000
H       -2.54930000      -1.26670000       0.77900000
H       -0.10750000       0.09590000       3.43710000
H       -0.84060000       1.26050000       2.30380000
