18
Properties=species:S:1:pos:R:3 gdb_6142=T pbc="F F F"
C       -0.22610000       1.51920000       0.01790000
C        0.01820000       0.00880000      -0.02990000
C       -1.26260000      -0.77380000       0.23070000
C        0.85690000      -0.43070000      -1.26870000
C        2.08190000      -0.45530000      -0.31090000
N        1.15380000      -0.43910000       0.83890000
C        2.97370000      -1.61500000      -0.37220000
N        3.68180000      -2.52600000      -0.43860000
H        0.68910000       2.08440000      -0.18930000
H       -0.97900000       1.81920000      -0.71900000
H       -0.59320000       1.81800000       1.00650000
H       -2.01560000      -0.55670000      -0.53510000
H       -1.06050000      -1.84770000       0.23190000
H       -1.68800000      -0.50880000       1.20510000
H        0.59320000      -1.42320000      -1.63520000
H        0.91660000       0.26740000      -2.10390000
H        2.69800000       0.44740000      -0.41810000
H        1.41440000       0.19420000       1.58850000
