23
Properties=species:S:1:pos:R:3 gdb_97895=T pbc="F F F"
C        0.22840000       0.80690000       0.74330000
C       -0.31510000       0.59490000      -0.68160000
C       -1.57990000      -0.13300000      -0.70820000
C       -2.62370000      -0.73470000      -0.69960000
C       -3.88650000      -1.46280000      -0.70170000
C       -3.85770000      -2.81100000       0.07470000
C       -5.25990000      -3.43630000       0.05000000
C       -2.82050000      -3.76640000      -0.51530000
O       -3.44640000      -2.59470000       1.42400000
H        1.17800000       1.35000000       0.71400000
H       -0.47940000       1.38170000       1.34680000
H        0.39280000      -0.15210000       1.24170000
H       -0.44390000       1.56850000      -1.17250000
H        0.43030000       0.05520000      -1.28010000
H       -4.67570000      -0.83390000      -0.26370000
H       -4.20360000      -1.65920000      -1.73450000
H       -5.58690000      -3.65530000      -0.97170000
H       -5.26220000      -4.36790000       0.62230000
H       -5.99700000      -2.75950000       0.49880000
H       -1.83100000      -3.30440000      -0.49840000
H       -2.78580000      -4.68650000       0.07430000
H       -3.07090000      -4.02320000      -1.54900000
H       -4.05240000      -1.96170000       1.82400000
