20
Properties=species:S:1:pos:R:3 gdb_98525=T pbc="F F F"
C       -0.04200000       1.52420000       0.07990000
C        0.03140000       0.00490000      -0.04740000
C        0.74620000      -0.46670000      -1.30460000
O        1.19590000       0.30060000      -2.12770000
C        0.87840000      -1.95730000      -1.49540000
C       -0.21600000      -3.05740000      -1.57860000
N        1.07250000      -3.87350000      -1.77500000
C        1.51240000      -2.70460000      -2.68430000
C        1.62490000      -3.00990000      -0.62880000
H        0.95930000       1.96160000       0.10490000
H       -0.56400000       1.96100000      -0.77510000
H       -0.56940000       1.81210000       0.99340000
H        0.53990000      -0.44590000       0.81660000
H       -0.97170000      -0.44500000      -0.04730000
H       -0.76280000      -3.31750000      -0.66820000
H       -0.87070000      -3.05340000      -2.45400000
H        0.99040000      -2.67740000      -3.64330000
H        2.59450000      -2.63630000      -2.81440000
H        2.71650000      -2.96000000      -0.60280000
H        1.20990000      -3.26570000       0.34980000
