17
Properties=species:S:1:pos:R:3 gdb_58174=T pbc="F F F"
C       -0.04150000       1.55600000       0.12410000
C       -0.04500000       0.03210000       0.05300000
O       -1.35510000      -0.50650000       0.11840000
C        0.72030000      -0.46200000      -1.20950000
O        2.02640000       0.04690000      -1.20860000
C        0.78270000      -1.99090000      -1.26460000
O        1.84530000      -2.54740000      -1.05380000
C       -0.40960000      -2.72530000      -1.60260000
C       -1.37520000      -3.35450000      -1.94960000
H        0.98010000       1.93970000       0.10090000
H       -0.58320000       1.98160000      -0.73100000
H       -0.53380000       1.88770000       1.04220000
H        0.47890000      -0.37660000       0.92510000
H       -1.88880000      -0.08260000      -0.56300000
H        0.17860000      -0.10730000      -2.10200000
H        2.60060000      -0.72230000      -1.05640000
H       -2.23070000      -3.91470000      -2.24050000
