19
Properties=species:S:1:pos:R:3 gdb_59687=T pbc="F F F"
C        0.01300000       1.56420000      -0.10010000
C        0.00720000       0.03490000      -0.07320000
O        0.89010000      -0.46500000       0.92330000
C       -1.39910000      -0.53210000       0.12850000
C       -2.38820000      -0.34930000      -1.05600000
N       -2.11530000      -1.74230000      -1.47020000
C       -1.56950000      -2.06700000      -0.13550000
C       -0.41310000      -2.96620000      -0.14700000
N        0.45740000      -3.72560000      -0.17130000
H        1.03780000       1.92690000      -0.21220000
H       -0.58580000       1.96270000      -0.92440000
H       -0.39350000       1.97010000       0.83550000
H        0.40890000      -0.34820000      -1.01840000
H        0.64150000      -0.06870000       1.76630000
H       -1.77980000      -0.21450000       1.10370000
H       -3.41570000      -0.16090000      -0.71650000
H       -2.12820000       0.39640000      -1.81420000
H       -2.91110000      -2.29750000      -1.76360000
H       -2.30700000      -2.49000000       0.56230000
