17
Properties=species:S:1:pos:R:3 gdb_66518=T pbc="F F F"
O       -0.20820000       1.37920000      -0.03160000
C        0.05180000       0.03390000      -0.00650000
C       -0.92790000      -1.09650000       0.10800000
C        0.19780000      -1.00260000      -1.07350000
C        1.24380000      -1.78470000      -0.31250000
C        1.13400000      -3.09100000       0.00250000
C        0.39380000      -3.16150000       1.34000000
C       -0.21970000      -1.71520000       1.36550000
C        0.97530000      -0.85040000       0.90120000
H        0.53680000       1.82440000      -0.45180000
H       -1.97410000      -1.11320000      -0.17320000
H       -0.14640000      -1.01500000      -2.10070000
H        0.99120000      -3.86730000      -0.74360000
H       -0.33290000      -3.98210000       1.30690000
H        0.99230000      -3.30840000       2.25080000
H       -0.73450000      -1.43720000       2.29070000
H        1.77540000      -0.51050000       1.55620000
