16
Properties=species:S:1:pos:R:3 gdb_127395=T pbc="F F F"
C        0.06480000       1.39350000       0.04860000
N       -0.11800000      -0.04020000       0.13350000
C       -1.50180000      -0.49430000       0.09420000
C       -1.46610000      -1.91580000       0.67080000
C       -0.18700000      -1.97110000       1.38030000
C        0.55580000      -0.66500000       1.27520000
N        0.20680000      -3.01850000       2.03290000
N        0.50900000      -3.96160000       2.58520000
O       -2.32040000      -2.76440000       0.57060000
H        1.13350000       1.62970000       0.02120000
H       -0.38640000       1.76900000      -0.87480000
H       -0.38680000       1.94070000       0.89810000
H       -2.18600000       0.10710000       0.72630000
H       -1.90430000      -0.49440000      -0.92340000
H        1.62750000      -0.78280000       1.07320000
H        0.45750000      -0.07040000       2.20600000
