18
Properties=species:S:1:pos:R:3 gdb_43826=T pbc="F F F"
O        0.10930000       0.01740000       0.18720000
C        0.01680000       1.20290000       0.00120000
C       -1.28120000       2.00070000      -0.21790000
C       -0.80130000       3.28080000      -0.88990000
C       -1.30250000       3.70440000      -2.24130000
C       -1.62010000       4.52980000      -1.01170000
N        0.64670000       3.45030000      -0.67600000
C        1.02520000       3.39830000       0.72960000
C        1.15230000       2.17490000      -0.12660000
H       -1.97280000       1.41670000      -0.82830000
H       -1.76910000       2.16770000       0.75040000
H       -0.56850000       4.10130000      -2.93280000
H       -2.10040000       3.12620000      -2.69520000
H       -2.63400000       4.51610000      -0.62620000
H       -1.10240000       5.47570000      -0.89680000
H        1.93070000       3.94030000       0.98430000
H        0.24840000       3.42260000       1.48980000
H        2.12350000       1.81020000      -0.44150000
