19
Properties=species:S:1:pos:R:3 gdb_39893=T pbc="F F F"
C        0.01830000       1.47670000       0.01010000
O        1.18340000       0.62750000      -0.00620000
C       -0.08890000       0.02150000       0.00300000
C       -0.55250000      -0.89560000       1.13890000
C       -2.08020000      -0.95250000       0.80020000
C       -2.09570000      -0.94370000      -0.76550000
C       -0.57500000      -0.88290000      -1.13370000
C        0.03600000      -2.19990000      -0.67960000
C        0.04930000      -2.20740000       0.65810000
H       -0.13660000       2.03330000       0.93410000
H       -0.15480000       2.04360000      -0.90440000
H       -0.31270000      -0.58410000       2.15530000
H       -2.55360000      -1.84090000       1.22280000
H       -2.59470000      -0.07510000       1.20330000
H       -2.57750000      -1.82740000      -1.18860000
H       -2.61800000      -0.06200000      -1.14850000
H       -0.35530000      -0.56000000      -2.15110000
H        0.31630000      -3.00620000      -1.34600000
H        0.34260000      -3.02100000       1.30980000
