18
Properties=species:S:1:pos:R:3 gdb_82963=T pbc="F F F"
O        0.04380000       1.34350000       0.16290000
C        0.01950000      -0.03220000       0.03210000
C       -1.33070000      -0.73560000       0.01640000
N       -2.45180000       0.16780000      -0.08960000
C       -3.21320000       0.00220000      -1.30520000
C       -3.23260000       1.15460000      -2.29170000
C       -2.32210000      -0.01920000      -2.51590000
O       -0.95680000       0.16230000      -2.25180000
C       -0.47830000      -0.68310000      -1.24110000
H       -0.87730000       1.62050000       0.02920000
H        0.84810000      -0.51190000       0.54360000
H       -1.47070000      -1.68730000       0.52680000
H       -3.02110000       0.20330000       0.74330000
H       -4.06520000      -0.67560000      -1.28080000
H       -4.09130000       1.26490000      -2.94480000
H       -2.76480000       2.07750000      -1.96950000
H       -2.53620000      -0.71170000      -3.32740000
H       -0.00320000      -1.59640000      -1.59560000
