17
Properties=species:S:1:pos:R:3 gdb_67995=T pbc="F F F"
C       -0.01800000       1.48060000      -0.00410000
C       -0.03970000      -0.02230000      -0.01570000
N        0.83670000      -0.69730000      -0.93750000
C        0.41370000      -1.99460000      -1.15260000
O        0.97040000      -2.84720000      -1.79020000
N       -0.80310000      -2.18460000      -0.35690000
C       -0.26450000      -2.27350000       1.07760000
C       -0.48790000      -0.78160000       1.25680000
C       -1.29910000      -0.80690000      -0.02800000
H        0.92970000       1.86600000       0.38800000
H       -0.15610000       1.87540000      -1.01570000
H       -0.81940000       1.86970000       0.63040000
H        1.79750000      -0.44320000      -1.10100000
H       -0.94890000      -2.88080000       1.67330000
H        0.75020000      -2.67720000       1.16090000
H       -0.68760000      -0.25510000       2.18260000
H       -2.29620000      -0.47890000      -0.29640000
