25
Properties=species:S:1:pos:R:3 gdb_88592=T pbc="F F F"
C       -1.93240000       1.48780000       2.23210000
C       -1.74200000      -0.00850000       2.11100000
C       -0.87110000      -0.60150000       1.02970000
C       -0.44520000      -0.70440000       2.47900000
C        0.75420000       0.04690000       2.97160000
C        1.13570000       0.11380000       4.44090000
C        0.32070000      -0.55930000       5.52570000
C        2.00970000      -0.65140000       3.46610000
C        2.16320000      -2.15770000       3.49540000
H       -1.03450000       2.04000000       1.94050000
H       -2.74870000       1.82860000       1.58540000
H       -2.17900000       1.77790000       3.25980000
H       -2.63860000      -0.57760000       2.34550000
H       -1.20090000      -1.49600000       0.51210000
H       -0.31880000       0.09240000       0.40200000
H       -0.57980000      -1.68630000       2.92060000
H        0.94260000       0.95980000       2.41290000
H        1.54300000       1.07120000       4.75860000
H       -0.10770000      -1.51190000       5.20560000
H        0.93420000      -0.75710000       6.41200000
H       -0.51260000       0.08050000       5.83730000
H        2.93530000      -0.14630000       3.19860000
H        1.25390000      -2.67370000       3.81170000
H        2.42850000      -2.54250000       2.50430000
H        2.95960000      -2.45180000       4.18840000
