20
Properties=species:S:1:pos:R:3 gdb_117731=T pbc="F F F"
C       -0.09550000       1.61570000      -0.04900000
C        0.01200000       0.08930000       0.02320000
C       -1.36720000      -0.58080000       0.02020000
C       -1.35380000      -2.14070000       0.00170000
C       -0.65800000      -2.73610000       1.24980000
C       -2.82270000      -2.58980000       0.02970000
O       -3.39650000      -3.17930000      -0.84070000
C       -0.69930000      -2.62520000      -1.21810000
N       -0.14740000      -2.98780000      -2.16580000
H        0.89570000       2.07800000      -0.04290000
H       -0.60650000       1.93400000      -0.96380000
H       -0.65620000       2.01740000       0.80220000
H        0.59520000      -0.28100000      -0.82750000
H        0.56380000      -0.19160000       0.92730000
H       -1.93360000      -0.26690000       0.90670000
H       -1.93340000      -0.23700000      -0.85340000
H       -1.15110000      -2.37510000       2.15780000
H       -0.70590000      -3.82790000       1.23680000
H        0.39220000      -2.44290000       1.28720000
H       -3.33160000      -2.29340000       0.97540000
