20
Properties=species:S:1:pos:R:3 gdb_6763=T pbc="F F F"
C       -0.08670000       1.52810000       0.01090000
C        0.07870000       0.01720000       0.00230000
O        1.17030000      -0.50420000      -0.01170000
C       -1.20730000      -0.80100000       0.00990000
C       -0.98010000      -2.31190000      -0.00070000
C       -2.28800000      -3.10720000       0.00730000
C       -2.06180000      -4.61310000      -0.00330000
O       -3.33190000      -5.24740000       0.00530000
H        0.89250000       2.00820000       0.00400000
H       -0.66370000       1.85410000      -0.86180000
H       -0.64740000       1.84590000       0.89720000
H       -1.79600000      -0.49760000       0.88790000
H       -1.81260000      -0.48780000      -0.85330000
H       -0.38170000      -2.57500000      -0.88060000
H       -0.36510000      -2.58480000       0.86470000
H       -2.88410000      -2.85340000       0.89310000
H       -2.90090000      -2.84350000      -0.86400000
H       -1.48060000      -4.89450000      -0.89700000
H       -1.46370000      -4.90440000       0.87610000
H       -3.19300000      -6.19880000      -0.00110000
