21
Properties=species:S:1:pos:R:3 gdb_74517=T pbc="F F F"
C        0.05860000       1.53340000      -0.04120000
C        0.02130000       0.04020000      -0.02030000
C       -1.00400000      -0.77650000       0.20850000
C       -0.57580000      -2.21070000       0.12830000
C       -0.97560000      -3.11990000       1.33220000
C       -2.15000000      -3.67200000       0.48130000
C       -1.43410000      -3.13810000      -0.78770000
O        0.81390000      -2.15080000      -0.17280000
C        1.24620000      -0.80040000      -0.27800000
H        0.76540000       1.92360000       0.70220000
H        0.39360000       1.90880000      -1.01650000
H       -0.92460000       1.96240000       0.16780000
H       -2.02350000      -0.48090000       0.42650000
H       -0.19830000      -3.87240000       1.48890000
H       -1.20080000      -2.63200000       2.28400000
H       -2.34280000      -4.74520000       0.53230000
H       -3.08710000      -3.14420000       0.67950000
H       -2.03420000      -2.66520000      -1.56930000
H       -0.78840000      -3.89590000      -1.23930000
H        1.67290000      -0.61660000      -1.27760000
H        2.04720000      -0.60170000       0.45280000
