21
Properties=species:S:1:pos:R:3 gdb_92605=T pbc="F F F"
O        0.42890000       0.97570000      -0.89660000
C        0.09220000      -0.12420000      -0.08310000
C        0.14550000       0.01080000       1.46200000
C       -1.23080000      -0.71550000       1.56660000
C       -2.37710000       0.09080000       2.18610000
C       -2.67810000       1.18020000       1.13490000
C       -2.47380000       0.46660000      -0.21910000
C       -1.39050000      -0.60720000       0.01590000
O       -1.66910000      -1.83540000      -0.62630000
H        0.02790000       1.76510000      -0.51860000
H        0.70640000      -0.95750000      -0.43610000
H        0.99270000      -0.46720000       1.95770000
H        0.10540000       1.05420000       1.79440000
H       -1.15560000      -1.74020000       1.93190000
H       -3.25430000      -0.55450000       2.31390000
H       -2.12870000       0.50390000       3.16920000
H       -3.68000000       1.60630000       1.23700000
H       -1.97420000       2.01420000       1.24270000
H       -3.38810000      -0.06430000      -0.50370000
H       -2.21980000       1.15070000      -1.03560000
H       -1.66320000      -1.68050000      -1.57760000
