11
Properties=species:S:1:pos:R:3 gdb_236=T pbc="F F F"
C       -0.06450000       1.50880000       0.01130000
C        0.09950000       0.00260000       0.00140000
O        1.16800000      -0.54770000      -0.01180000
C       -1.22630000      -0.78870000       0.00920000
C       -1.04750000      -2.23460000      -0.00020000
N       -0.93030000      -3.38290000      -0.00750000
H        0.91720000       1.98240000       0.00520000
H       -0.63850000       1.83740000      -0.86240000
H       -0.62280000       1.82760000       0.89880000
H       -1.80920000      -0.49480000       0.89120000
H       -1.82500000      -0.48530000      -0.85880000
