18
Properties=species:S:1:pos:R:3 gdb_41050=T pbc="F F F"
C       -0.00180000       1.52200000       0.18810000
C        1.51010000       1.59080000      -0.25700000
C        1.42770000       0.10780000      -0.65250000
C        1.68760000      -1.30570000      -0.05300000
C        0.63740000      -1.01130000       1.05790000
C        0.03820000      -0.02000000       0.01240000
C       -0.30790000      -0.78990000      -1.25920000
C        0.86750000      -1.71410000      -1.31070000
N        0.94950000      -0.39640000      -2.01820000
H       -0.21990000       1.87830000       1.19760000
H       -0.68240000       2.02020000      -0.50630000
H        1.74660000       2.26840000      -1.08080000
H        2.20620000       1.78780000       0.56270000
H        2.64750000      -1.79370000       0.12000000
H        0.01770000      -1.83590000       1.42260000
H        1.07960000      -0.48330000       1.90890000
H       -1.25240000      -0.97880000      -1.75950000
H        0.88970000      -2.64800000      -1.85750000
