23
Properties=species:S:1:pos:R:3 gdb_115287=T pbc="F F F"
C        0.14610000       1.27060000      -0.27860000
O       -0.01650000      -0.04040000       0.20710000
C       -1.34060000      -0.52660000       0.11620000
C       -1.82800000      -0.84550000      -1.31410000
C       -2.89880000      -1.91370000      -1.07150000
C       -2.25080000      -2.84020000      -0.01590000
C       -3.25290000      -3.70320000       0.74860000
O       -1.27040000      -3.67620000      -0.64980000
C       -1.44280000      -1.86800000       0.87860000
H        1.18230000       1.56100000      -0.08750000
H       -0.04430000       1.34550000      -1.35960000
H       -0.52110000       1.98130000       0.23640000
H       -2.02270000       0.21530000       0.56690000
H       -2.19800000       0.02810000      -1.85700000
H       -0.99280000      -1.27880000      -1.87380000
H       -3.80810000      -1.45800000      -0.65860000
H       -3.19150000      -2.46160000      -1.97380000
H       -3.80890000      -4.35490000       0.06300000
H       -2.73400000      -4.33850000       1.47270000
H       -3.98200000      -3.08750000       1.28530000
H       -1.73640000      -4.26490000      -1.25390000
H       -0.44080000      -2.27180000       1.03540000
H       -1.91210000      -1.73840000       1.85670000
