15
Properties=species:S:1:pos:R:3 gdb_49365=T pbc="F F F"
N       -0.40890000       1.01820000      -0.35440000
C       -0.23840000      -0.18370000       0.01670000
N       -1.28850000      -0.90440000       0.59000000
C       -2.66480000      -0.68520000       0.16310000
C       -2.97970000       0.18210000      -1.03290000
O       -2.93740000      -0.21950000      -2.16860000
C       -1.97540000      -2.01010000      -0.04170000
C       -1.58530000      -2.49700000      -1.41470000
O       -0.51290000      -2.28880000      -1.91970000
H        0.46740000       1.43290000      -0.66590000
H        0.70020000      -0.74060000       0.01470000
H       -3.37000000      -0.57650000       0.98690000
H       -3.31710000       1.20530000      -0.78430000
H       -2.26280000      -2.82410000       0.62600000
H       -2.34660000      -3.14620000      -1.89350000
