17
Properties=species:S:1:pos:R:3 gdb_4024=T pbc="F F F"
C        0.05880000       1.50230000       0.25540000
C        0.17600000      -0.01310000       0.06950000
C       -1.21150000      -0.65190000       0.00020000
O       -1.52170000      -1.68480000       0.53310000
C        0.90730000      -0.43930000      -1.19410000
C        1.38340000      -1.86300000      -1.28790000
N        1.04920000       0.44750000      -2.10380000
O        1.73260000      -0.04560000      -3.22210000
H        1.04810000       1.96520000       0.25300000
H       -0.51500000       1.95530000      -0.55670000
H       -0.43410000       1.73280000       1.20470000
H        0.68580000      -0.47540000       0.92260000
H       -1.93250000      -0.08240000      -0.63030000
H        1.32870000      -2.22350000      -2.31650000
H        2.43130000      -1.93160000      -0.97180000
H        0.79160000      -2.50950000      -0.63580000
H        1.73990000       0.71870000      -3.80810000
