16
Properties=species:S:1:pos:R:3 gdb_54959=T pbc="F F F"
C        0.02390000       1.61150000      -0.45400000
C       -0.04570000       0.14580000      -0.07650000
N        1.22070000      -0.59820000      -0.06010000
C        0.52700000      -0.41090000       1.21240000
C        1.18470000       0.49360000       2.23270000
N        0.80150000       0.23120000       3.51470000
O        1.96530000       1.37680000       1.94360000
C       -1.21780000      -0.56180000      -0.55570000
N       -2.14470000      -1.13050000      -0.95050000
H        0.92470000       2.04810000      -0.02440000
H        0.05300000       1.71020000      -1.54280000
H       -0.85530000       2.14620000      -0.08300000
H        1.09760000      -1.55030000      -0.39590000
H       -0.01040000      -1.26400000       1.62180000
H        0.14780000      -0.49300000       3.75390000
H        1.17370000       0.81050000       4.24930000
