25
Properties=species:S:1:pos:R:3 gdb_119155=T pbc="F F F"
C       -0.01890000       1.64010000       0.06300000
C        0.03510000       0.12190000      -0.13650000
C       -1.32220000      -0.54270000       0.12760000
C       -1.38360000      -2.06760000       0.06100000
C       -0.34080000      -2.85200000      -0.70840000
C       -0.34230000      -2.87880000       0.80130000
C       -2.76830000      -2.67250000       0.04560000
C       -3.97870000      -2.01940000       0.66750000
C       -3.88900000      -2.17010000      -0.83270000
H        0.95110000       2.10310000      -0.14290000
H       -0.75630000       2.10140000      -0.60340000
H       -0.29920000       1.89540000       1.09100000
H        0.35960000      -0.09360000      -1.16110000
H        0.80190000      -0.29820000       0.52570000
H       -1.67340000      -0.22780000       1.12000000
H       -2.04000000      -0.12330000      -0.59020000
H       -0.67070000      -3.73960000      -1.23830000
H        0.46270000      -2.31990000      -1.20360000
H        0.45550000      -2.35640000       1.31820000
H       -0.66760000      -3.78480000       1.30220000
H       -2.74040000      -3.75490000       0.14960000
H       -4.67650000      -2.64560000       1.21280000
H       -3.87520000      -1.02020000       1.07490000
H       -3.72790000      -1.27270000      -1.42000000
H       -4.52170000      -2.90400000      -1.32010000
