18
Properties=species:S:1:pos:R:3 gdb_76387=T pbc="F F F"
C       -0.01770000       1.54540000       0.11270000
C        0.03970000       0.03660000       0.07040000
C        1.33250000      -0.70540000      -0.14720000
O        2.55630000      -0.01900000      -0.13920000
C        0.67230000      -0.74250000       1.22030000
O        1.32190000      -0.03860000       2.23780000
C        0.01330000      -2.02810000       1.63250000
N        0.17550000      -2.34090000       2.94160000
O       -0.60230000      -2.71200000       0.83030000
H        0.80540000       1.96320000       0.69650000
H        0.01690000       1.97260000      -0.89630000
H       -0.94960000       1.87930000       0.57840000
H       -0.82000000      -0.46820000      -0.35970000
H        1.31850000      -1.61710000      -0.73810000
H        2.51540000       0.70240000      -0.77540000
H        2.20150000       0.17550000       1.89110000
H        0.70240000      -1.72810000       3.53990000
H       -0.23130000      -3.18950000       3.29550000
