21
Properties=species:S:1:pos:R:3 gdb_93230=T pbc="F F F"
C        0.02590000       1.57980000       0.01300000
C        0.01370000       0.04760000       0.01180000
C        0.66290000      -0.51860000      -1.26330000
C        0.66300000      -2.06230000      -1.28440000
C        1.25880000      -2.61380000      -0.00830000
O        2.16300000      -3.42200000       0.02950000
C        0.67840000      -2.06270000       1.29080000
O        1.36850000      -2.57360000       2.39660000
C        0.71240000      -0.52250000       1.25690000
H        1.05250000       1.96360000      -0.00620000
H       -0.49670000       1.98160000      -0.86130000
H       -0.46110000       1.97870000       0.90840000
H       -1.03580000      -0.28410000       0.02940000
H        0.14710000      -0.14330000      -2.15380000
H        1.69850000      -0.15850000      -1.32760000
H       -0.37330000      -2.42060000      -1.35470000
H        1.21470000      -2.46420000      -2.13750000
H       -0.38060000      -2.37970000       1.32290000
H        2.01480000      -3.19560000       2.02380000
H        1.76300000      -0.20320000       1.27650000
H        0.25110000      -0.14370000       2.17490000
