17
Properties=species:S:1:pos:R:3 gdb_53640=T pbc="F F F"
C       -0.07300000       1.45530000       0.05950000
C       -0.03240000       0.00020000       0.05270000
C        0.01670000      -1.20240000       0.04350000
C        0.06050000      -2.65830000       0.04230000
N       -1.27570000      -3.22460000      -0.10450000
C       -1.45740000      -4.57620000      -0.09400000
N       -0.48260000      -5.40490000      -0.08270000
C       -2.90930000      -5.00260000      -0.13080000
O       -3.24570000      -6.15650000      -0.14030000
H        0.88910000       1.87500000      -0.25360000
H       -0.83760000       1.83430000      -0.62710000
H       -0.29700000       1.84580000       1.05800000
H        0.68510000      -3.03390000      -0.77790000
H        0.52940000      -3.03580000       0.96320000
H       -2.05410000      -2.62050000       0.10160000
H       -0.86630000      -6.35110000      -0.11830000
H       -3.65890000      -4.17860000      -0.14890000
