18
Properties=species:S:1:pos:R:3 gdb_11613=T pbc="F F F"
C       -0.00400000       1.58460000       0.21460000
C       -0.01260000       0.05850000       0.03910000
O        0.74900000      -0.58630000       1.06120000
C       -1.37900000      -0.46500000      -0.03830000
C       -2.50940000      -0.88750000      -0.05330000
C       -3.84860000      -1.39760000      -0.08190000
C       -4.28950000      -2.32600000      -1.20430000
C       -4.10800000      -2.87460000       0.17840000
H        1.02880000       1.93720000       0.27860000
H       -0.50050000       2.07700000      -0.62670000
H       -0.52990000       1.86620000       1.13260000
H        0.51860000      -0.18850000      -0.88860000
H        0.22080000      -0.56020000       1.86670000
H       -4.60890000      -0.71570000       0.28820000
H       -5.29650000      -2.19720000      -1.58450000
H       -3.54870000      -2.57600000      -1.95400000
H       -3.24300000      -3.49770000       0.37060000
H       -4.98900000      -3.12720000       0.75760000
