21
Properties=species:S:1:pos:R:3 gdb_108509=T pbc="F F F"
C        0.13720000       1.57600000      -0.15300000
C       -0.02200000       0.06350000       0.04250000
C        0.68020000      -0.47000000       1.28520000
C        2.22480000      -0.44460000       1.33750000
O        2.27530000      -1.83380000       1.72660000
C        0.86310000      -1.99940000       1.45650000
C        0.01760000      -2.39680000       2.67370000
O       -0.77020000      -1.25200000       2.98480000
C       -0.01160000      -0.10760000       2.61990000
H        1.19240000       1.85590000      -0.24590000
H       -0.37410000       1.90830000      -1.06120000
H       -0.28260000       2.14030000       0.68630000
H       -1.08720000      -0.19420000       0.10300000
H        0.37120000      -0.45690000      -0.84000000
H        2.70110000      -0.28380000       0.36090000
H        2.69590000       0.21150000       2.07890000
H        0.69690000      -2.62850000       0.57430000
H       -0.66760000      -3.22770000       2.48440000
H        0.69040000      -2.66400000       3.50240000
H        0.73500000       0.12750000       3.39540000
H       -0.70560000       0.73330000       2.54240000
