18
Properties=species:S:1:pos:R:3 gdb_34816=T pbc="F F F"
C       -0.06320000      -1.23480000      -0.15940000
C       -0.02730000      -0.03820000      -0.04360000
C       -0.03460000       1.40370000       0.07300000
C        0.01960000       2.10130000       1.46700000
C        1.49430000       1.64110000       1.50000000
N        1.34890000       2.13370000       0.04010000
C        0.57240000       3.28130000       0.67110000
C        0.00030000       4.45110000      -0.03860000
C        1.11450000       4.61890000       1.00180000
H       -0.08600000      -2.29170000      -0.26100000
H       -0.72780000       1.84810000      -0.64610000
H       -0.73800000       2.08750000       2.25710000
H        2.19830000       2.23880000       2.08140000
H        1.69740000       0.57240000       1.57690000
H        0.26930000       4.59690000      -1.07980000
H       -0.99670000       4.79060000       0.22380000
H        0.85740000       5.07020000       1.95490000
H        2.10270000       4.87310000       0.63260000
