19
Properties=species:S:1:pos:R:3 gdb_27147=T pbc="F F F"
C        0.14300000       1.52080000       0.00440000
C        0.05240000       0.02650000       0.04600000
C       -0.13880000      -0.79830000      -1.04200000
N       -0.16480000      -2.10680000      -0.58800000
C        0.00720000      -2.12010000       0.77530000
C        0.14410000      -0.82020000       1.19300000
N       -0.28480000      -0.41010000      -2.38630000
C        0.27940000      -1.23520000      -3.45710000
C       -1.19460000      -1.14250000      -3.27040000
H        1.10570000       1.88050000       0.38700000
H        0.03320000       1.87630000      -1.02300000
H       -0.63840000       1.99250000       0.61220000
H       -0.28970000      -2.92420000      -1.15780000
H        0.01690000      -3.04850000       1.32350000
H        0.29460000      -0.49770000       2.21250000
H        0.76870000      -0.68820000      -4.25830000
H        0.76940000      -2.16750000      -3.18360000
H       -1.71250000      -2.01140000      -2.86930000
H       -1.79630000      -0.52690000      -3.93330000
