20
Properties=species:S:1:pos:R:3 gdb_9546=T pbc="F F F"
C       -0.25720000       1.45970000      -0.06510000
C        0.08220000      -0.01870000      -0.00190000
O        1.23420000      -0.34910000      -0.81470000
C        1.99680000      -0.76260000       0.33800000
C        0.77410000      -0.60030000       1.27110000
C        0.95100000       0.29770000       2.48980000
C        0.16600000      -1.94500000       1.65730000
O        1.04710000      -2.58740000       2.56770000
H        0.59190000       2.08200000       0.22950000
H       -0.53160000       1.72710000      -1.09030000
H       -1.10630000       1.69430000       0.58630000
H       -0.79300000      -0.60400000      -0.32240000
H        2.39110000      -1.77990000       0.23770000
H        2.82940000      -0.07710000       0.54390000
H        1.43820000       1.24210000       2.23360000
H       -0.01470000       0.53030000       2.95360000
H        1.56340000      -0.21120000       3.23880000
H       -0.82770000      -1.78300000       2.10840000
H        0.02410000      -2.55220000       0.74970000
H        0.68620000      -3.45240000       2.78090000
