18
Properties=species:S:1:pos:R:3 gdb_85155=T pbc="F F F"
C       -0.05650000       1.59900000       0.04010000
C        0.02800000       0.08290000       0.02700000
C        0.73160000      -0.59740000      -1.19180000
C        1.74320000      -1.13970000      -0.17170000
O        2.71520000      -1.85710000      -0.18080000
N        1.09990000      -0.49330000       0.86490000
C        1.26470000      -0.51760000       2.25320000
N        2.44710000      -1.11320000       2.62890000
N        0.35790000       0.02540000       2.97220000
H        0.90850000       2.04650000      -0.21980000
H       -0.80220000       1.93910000      -0.68570000
H       -0.34680000       1.94760000       1.03340000
H       -0.94070000      -0.36240000       0.27150000
H        0.15880000      -1.37020000      -1.70720000
H        1.15950000       0.09170000      -1.92310000
H        2.91880000      -1.67660000       1.93120000
H        2.50910000      -1.42800000       3.58270000
H        0.58760000      -0.03990000       3.96240000
