17
Properties=species:S:1:pos:R:3 gdb_126378=T pbc="F F F"
C        0.01140000       1.52270000       0.12790000
C       -0.04290000       0.00610000      -0.11730000
C       -1.44670000      -0.53170000      -0.06070000
N       -2.06730000      -0.54400000       1.13960000
C       -3.29960000      -0.99680000       1.15040000
C       -3.91440000      -1.44390000      -0.03840000
N       -5.22130000      -1.86990000      -0.08000000
N       -3.24030000      -1.42180000      -1.18920000
N       -1.99550000      -0.95300000      -1.19800000
H        1.04590000       1.87830000       0.11950000
H       -0.54010000       2.06420000      -0.64720000
H       -0.42930000       1.77200000       1.09740000
H        0.37430000      -0.23930000      -1.09690000
H        0.55690000      -0.50450000       0.64470000
H       -3.82930000      -1.02000000       2.10250000
H       -5.60240000      -2.27430000       0.76070000
H       -5.46770000      -2.35760000      -0.92950000
