20
Properties=species:S:1:pos:R:3 gdb_30812=T pbc="F F F"
C       -0.03910000       1.55360000       0.48130000
C       -0.03590000       0.11260000      -0.05920000
C       -1.39660000      -0.47260000      -0.19910000
C       -2.16470000      -0.90940000      -1.23030000
C       -1.87000000      -0.96140000      -2.69200000
N       -3.39000000      -1.35300000      -0.72550000
C       -3.31170000      -1.16910000       0.55270000
C       -4.32950000      -1.46380000       1.59490000
O       -2.13040000      -0.63660000       0.95750000
H        0.98290000       1.93000000       0.58550000
H       -0.58440000       2.22220000      -0.19170000
H       -0.52050000       1.59750000       1.46210000
H        0.44830000       0.08200000      -1.04040000
H        0.56880000      -0.52000000       0.60420000
H       -1.93750000      -1.98820000      -3.06760000
H       -2.59360000      -0.36450000      -3.25770000
H       -0.86890000      -0.58240000      -2.91320000
H       -3.94710000      -2.18040000       2.32950000
H       -4.61310000      -0.55640000       2.13860000
H       -5.21440000      -1.88310000       1.11580000
