20
Properties=species:S:1:pos:R:3 gdb_41958=T pbc="F F F"
C       -0.01300000       1.56690000      -0.00760000
O        1.27290000       2.15510000      -0.08900000
C        2.07110000       1.61620000      -1.12760000
C        2.12980000       0.08010000      -1.09440000
C        2.80760000      -0.49220000       0.15840000
O        2.09990000      -0.18650000       1.34670000
C        0.73050000      -0.54140000       1.27470000
C        0.03870000       0.03060000       0.02930000
N        0.77230000      -0.49590000      -1.13730000
H       -0.47780000       1.97730000       0.89530000
H       -0.62870000       1.87310000      -0.87440000
H        1.67660000       1.92760000      -2.11330000
H        3.06480000       2.06120000      -1.00850000
H        2.69070000      -0.26790000      -1.97080000
H        2.89280000      -1.58380000       0.03120000
H        3.81120000      -0.07500000       0.28580000
H        0.61760000      -1.63770000       1.25390000
H        0.26830000      -0.15890000       2.18980000
H       -0.98820000      -0.35500000       0.00630000
H        0.30590000      -0.20030000      -1.99210000
