20
Properties=species:S:1:pos:R:3 gdb_18753=T pbc="F F F"
C        0.53440000       1.48250000      -0.41880000
C        0.07910000       0.08060000      -0.01820000
C        0.53130000      -1.10930000      -0.92710000
C        1.25590000      -1.75460000       0.27470000
C        2.69560000      -1.21350000       0.52200000
C        2.14270000      -0.34180000       1.68760000
O        2.61440000       0.96350000       1.91150000
C        0.69060000      -0.63890000       1.23400000
H        1.59620000       1.51130000      -0.69320000
H       -0.01720000       1.82250000      -1.30240000
H        0.36240000       2.21050000       0.38090000
H       -1.01030000       0.09940000       0.08190000
H       -0.30820000      -1.70000000      -1.30350000
H        1.17110000      -0.84840000      -1.77730000
H        1.10780000      -2.81890000       0.45670000
H        3.45920000      -1.94410000       0.79910000
H        3.08030000      -0.62600000      -0.31910000
H        2.30850000      -0.86460000       2.63560000
H        2.52480000       1.46210000       1.09490000
H       -0.02830000      -0.83380000       2.03200000
