18
Properties=species:S:1:pos:R:3 gdb_20274=T pbc="F F F"
C       -0.01250000       1.51790000       0.05850000
C        1.31280000       0.79400000      -0.00170000
C        0.02040000       0.00780000       0.00710000
C        0.08470000      -0.65420000      -1.36460000
C        0.67920000       0.35310000      -2.40380000
C        1.38500000      -0.81530000      -3.12860000
C        1.57180000      -1.10540000      -1.62540000
C        1.85740000       0.42410000      -1.37670000
H       -0.27760000       1.96440000       1.01200000
H       -0.36160000       2.08220000      -0.79950000
H        1.98130000       0.82400000       0.85090000
H       -0.30520000      -0.56690000       0.86650000
H       -0.73040000      -1.30970000      -1.67740000
H        0.16330000       1.19610000      -2.86700000
H        0.74410000      -1.50170000      -3.68950000
H        2.28360000      -0.56520000      -3.70000000
H        2.08780000      -1.94850000      -1.16030000
H        2.81110000       0.84460000      -1.70150000
