22
Properties=species:S:1:pos:R:3 gdb_102513=T pbc="F F F"
C        0.55050000       1.12690000      -0.44060000
C        0.15630000      -0.31010000      -0.09310000
C       -1.35210000      -0.49290000       0.10290000
O       -2.04020000      -0.18220000      -1.09970000
C       -2.93860000       0.90580000      -1.02900000
C       -1.72310000      -1.93690000       0.53830000
C       -3.23190000      -2.10280000       0.79700000
C       -1.26670000      -2.92120000      -0.44990000
N       -0.91290000      -3.71220000      -1.21480000
H        1.63210000       1.21010000      -0.57980000
H        0.06800000       1.44640000      -1.36830000
H        0.26360000       1.82670000       0.35280000
H        0.48380000      -0.98800000      -0.88900000
H        0.66750000      -0.62840000       0.82450000
H       -1.69470000       0.17090000       0.91140000
H       -3.74480000       0.73080000      -0.30190000
H       -2.43010000       1.84380000      -0.76550000
H       -3.38200000       1.01520000      -2.02190000
H       -1.17740000      -2.14400000       1.46780000
H       -3.79560000      -1.88710000      -0.11260000
H       -3.46390000      -3.12220000       1.11410000
H       -3.55290000      -1.41500000       1.58500000
