15
Properties=species:S:1:pos:R:3 gdb_17648=T pbc="F F F"
N        0.06000000       1.21170000       0.08910000
C       -0.00650000      -0.14020000       0.04430000
O        0.97180000      -0.86440000       0.09450000
C       -1.41090000      -0.76720000      -0.10180000
O       -1.25550000      -2.14320000      -0.27570000
C       -2.27670000      -0.43500000       1.11050000
C       -3.06210000      -1.46950000       1.78990000
O       -1.84590000      -0.96730000       2.35670000
H        0.95280000       1.64240000       0.26750000
H       -0.76470000       1.78440000       0.12900000
H       -1.89750000      -0.32520000      -0.98740000
H       -0.30670000      -2.30230000      -0.12180000
H       -2.63200000       0.59820000       1.15580000
H       -3.97220000      -1.19080000       2.31890000
H       -3.00600000      -2.48720000       1.41550000
