17
Properties=species:S:1:pos:R:3 gdb_2107=T pbc="F F F"
C       -0.01490000       1.51650000       0.04510000
C        0.02520000      -0.00160000      -0.00540000
C        0.73670000      -0.53820000      -1.24960000
O        0.83760000      -1.95270000      -1.21570000
C        1.51300000      -2.38610000      -0.04620000
C        0.80400000      -1.86820000       1.19990000
O        0.70390000      -0.45400000       1.16470000
H        0.99880000       1.92850000       0.02680000
H       -0.57110000       1.91780000      -0.80760000
H       -0.50150000       1.84980000       0.96530000
H       -1.00110000      -0.40890000      -0.00090000
H        0.17850000      -0.28580000      -2.15630000
H        1.74020000      -0.08370000      -1.31500000
H        1.51960000      -3.48030000      -0.06990000
H        2.55530000      -2.02590000      -0.05190000
H       -0.19930000      -2.32080000       1.26460000
H        1.36250000      -2.12520000       2.10550000
