17
Properties=species:S:1:pos:R:3 gdb_44402=T pbc="F F F"
O       -0.09030000      -0.02860000      -0.19880000
C       -0.09750000       1.15430000      -0.06780000
C       -1.25310000       2.22170000       0.21630000
C       -0.15520000       2.93590000       1.05000000
C        0.86520000       4.15070000       1.02070000
C        1.99130000       3.00820000       1.10650000
C        0.92770000       2.29280000       0.16600000
C        0.95710000       3.27450000      -1.03730000
C        0.92730000       4.47810000      -0.46670000
H       -1.54080000       2.72780000      -0.70710000
H       -2.13670000       1.84920000       0.73730000
H       -0.14400000       2.49070000       2.05040000
H        0.82350000       4.95830000       1.75150000
H        2.96440000       3.25350000       0.67730000
H        2.09130000       2.55560000       2.09670000
H        1.03480000       2.98160000      -2.07450000
H        0.97060000       5.46350000      -0.90770000
