20
Properties=species:S:1:pos:R:3 gdb_119960=T pbc="F F F"
C       -0.17290000       1.07570000       1.16760000
O       -0.18700000      -0.22120000       0.61830000
C        1.09850000      -0.66530000       0.23640000
C        0.93820000      -2.07750000      -0.27550000
C        0.72540000      -2.39590000      -1.75020000
C        0.65860000      -1.30190000      -2.74990000
O        1.38250000      -0.33130000      -2.81310000
N        1.94190000      -2.78560000      -1.01920000
C        3.24050000      -2.18680000      -1.32780000
H        0.44780000       1.12700000       2.07650000
H        0.20720000       1.81940000       0.45030000
H       -1.20280000       1.32990000       1.42900000
H        1.53200000      -0.00430000      -0.52380000
H        1.77800000      -0.67390000       1.10740000
H        0.36700000      -2.70280000       0.41050000
H        0.07190000      -3.23260000      -1.99000000
H       -0.15720000      -1.44360000      -3.49320000
H        3.20400000      -1.14630000      -1.66110000
H        3.86470000      -2.26580000      -0.43240000
H        3.70800000      -2.78400000      -2.11610000
