19
Properties=species:S:1:pos:R:3 gdb_67820=T pbc="F F F"
C        0.02960000       1.54500000      -0.04420000
C       -0.00950000       0.02830000      -0.06570000
C        0.60680000      -0.64660000      -1.25050000
C        0.15000000      -1.90340000      -1.31830000
C       -0.68580000      -2.11810000      -0.08180000
O        0.30360000      -2.10230000       1.02150000
C        0.27220000      -0.72740000       1.35550000
C       -1.21940000      -0.51750000       1.69390000
C       -1.36100000      -0.74280000       0.17350000
H        1.06540000       1.89990000      -0.09030000
H       -0.49870000       1.96210000      -0.90880000
H       -0.41860000       1.97120000       0.85700000
H        1.35320000      -0.18820000      -1.88930000
H        0.45560000      -2.68400000      -2.00290000
H       -1.28910000      -3.02200000      -0.00710000
H        1.10620000      -0.46430000       2.00500000
H       -1.65910000      -1.25050000       2.37310000
H       -1.48330000       0.49580000       1.99680000
H       -2.25650000      -0.51280000      -0.40500000
