13
Properties=species:S:1:pos:R:3 gdb_129681=T pbc="F F F"
N       -0.58010000       0.76780000      -0.99570000
C       -0.22180000      -0.30460000      -0.25370000
C       -0.95090000      -1.23390000       0.46790000
N       -2.32790000      -1.41560000       0.66090000
C       -3.32490000      -0.96910000      -0.14040000
O       -3.18030000      -0.30040000      -1.15070000
N       -0.06110000      -2.04930000       1.08660000
N        1.12910000      -1.73220000       0.82830000
O        1.06340000      -0.58170000      -0.07440000
H        0.12340000       1.12400000      -1.62440000
H       -1.53370000       0.70840000      -1.34780000
H       -2.57500000      -1.99020000       1.45350000
H       -4.31730000      -1.27490000       0.23260000
