20
Properties=species:S:1:pos:R:3 gdb_15631=T pbc="F F F"
C       -0.07070000       1.56840000      -0.01330000
C        0.03980000       0.03960000       0.05000000
C        0.75630000      -0.57730000      -1.18020000
C        1.53620000      -1.80200000      -0.64480000
C        1.65820000      -1.50290000       0.82930000
C        0.85420000      -0.51060000       1.21150000
C        0.66510000      -0.00540000       2.60560000
O        1.43000000      -0.78310000       3.51020000
H        0.92210000       2.03150000      -0.04780000
H       -0.61610000       1.87950000      -0.91060000
H       -0.60420000       1.97720000       0.85170000
H       -0.98390000      -0.36270000       0.12420000
H        0.06380000      -0.82500000      -1.98950000
H        1.46580000       0.15840000      -1.57680000
H        0.98380000      -2.73960000      -0.80490000
H        2.50490000      -1.93270000      -1.14080000
H        2.28920000      -2.06850000       1.50320000
H        0.95340000       1.05900000       2.65600000
H       -0.41120000      -0.03980000       2.85810000
H        1.34660000      -0.39090000       4.38370000
