16
Properties=species:S:1:pos:R:3 gdb_23239=T pbc="F F F"
O       -0.19710000       1.24330000      -0.39690000
N       -0.05250000      -0.12940000      -0.17220000
C       -1.16770000      -0.68540000       0.05920000
C       -2.62580000      -0.24600000       0.22570000
O       -3.28430000       0.39130000      -0.83770000
C       -2.98330000      -1.73870000       0.56790000
C       -3.26130000      -2.61880000      -0.65190000
O       -1.84570000      -2.83600000      -0.88440000
C       -1.48680000      -2.13440000       0.33500000
H        0.71370000       1.52690000      -0.53560000
H       -2.74910000       0.40000000       1.10210000
H       -2.87200000       0.11400000      -1.66200000
H       -3.53760000      -1.91530000       1.48690000
H       -3.77240000      -3.56190000      -0.42510000
H       -3.76080000      -2.13460000      -1.49890000
H       -0.84650000      -2.72370000       0.99350000
