19
Properties=species:S:1:pos:R:3 gdb_120212=T pbc="F F F"
C       -0.03780000       1.52580000      -0.04990000
C       -0.11930000       0.04000000       0.25340000
O       -1.31380000      -0.47020000      -0.31860000
C       -1.45690000      -1.84140000      -0.19320000
C       -2.02930000      -2.54070000       1.10750000
C       -3.33170000      -1.76310000       1.33630000
C       -3.84260000      -1.72420000       0.10450000
C       -2.77710000      -2.49060000      -0.69800000
O       -2.46380000      -3.60420000       0.20110000
H        0.87170000       1.95350000       0.38230000
H       -0.02380000       1.69600000      -1.13010000
H       -0.90180000       2.04980000       0.36820000
H        0.75280000      -0.49140000      -0.16150000
H       -0.11700000      -0.13410000       1.34130000
H       -0.57270000      -2.38230000      -0.55770000
H       -1.42500000      -2.88100000       1.94700000
H       -3.69300000      -1.35160000       2.26670000
H       -4.74680000      -1.27490000      -0.27690000
H       -2.95740000      -2.77450000      -1.73350000
