20
Properties=species:S:1:pos:R:3 gdb_17072=T pbc="F F F"
C       -0.12530000       1.57660000      -0.09090000
C       -0.20030000       0.06920000      -0.22100000
C       -0.26690000      -0.79850000       1.01230000
C       -1.47130000      -0.66830000       0.11130000
C        1.29660000       2.09100000       0.11190000
C        2.24250000       2.08360000      -1.11310000
O        2.41480000       3.51360000      -1.05090000
C        1.51160000       3.62080000       0.06780000
H       -0.55540000       2.05060000      -0.98440000
H       -0.74830000       1.89590000       0.75590000
H        0.37440000      -0.33720000      -1.05030000
H        0.27370000      -1.73850000       1.01930000
H       -0.30360000      -0.30240000       1.97720000
H       -2.31310000      -0.08650000       0.47300000
H       -1.75210000      -1.51870000      -0.50010000
H        1.74060000       1.62010000       0.99310000
H        3.19360000       1.55050000      -0.99310000
H        1.77800000       1.76780000      -2.05810000
H        0.61630000       4.20750000      -0.18190000
H        1.99480000       4.07030000       0.94420000
