18
Properties=species:S:1:pos:R:3 gdb_54968=T pbc="F F F"
C        0.66730000       1.39120000       0.06020000
C       -0.32190000       0.24560000      -0.03770000
O       -1.05060000      -0.06280000       0.87650000
C       -0.34000000      -0.46640000      -1.36720000
N       -0.84680000      -1.83430000      -1.41630000
C       -1.65620000      -0.80980000      -2.06410000
C       -3.00820000      -0.48520000      -1.47510000
C       -1.54120000      -0.74690000      -3.55950000
O       -0.66310000      -1.29590000      -4.18210000
H        1.69060000       1.01800000      -0.06500000
H        0.49520000       2.11680000      -0.74340000
H        0.57150000       1.88110000       1.02930000
H        0.47510000      -0.21300000      -2.04140000
H       -0.33430000      -2.33510000      -2.14470000
H       -2.95780000      -0.49320000      -0.38710000
H       -3.35380000       0.49900000      -1.81020000
H       -3.74490000      -1.23000000      -1.79480000
H       -2.33350000      -0.16130000      -4.07200000
