21
Properties=species:S:1:pos:R:3 gdb_68857=T pbc="F F F"
C       -0.21520000       1.52000000       0.01250000
C        0.13120000       0.05560000      -0.01790000
C        0.38490000      -0.62210000      -1.36770000
C        1.28690000      -1.81170000      -1.04580000
C        2.66170000      -1.50640000      -0.50130000
C        1.53810000      -1.86030000       0.44350000
C        0.81210000      -0.69640000       1.06110000
C        1.27940000      -0.14010000       2.37910000
O       -0.61570000      -0.79420000       0.87300000
H        0.57470000       2.11770000      -0.45510000
H       -1.14220000       1.70140000      -0.54320000
H       -0.36520000       1.87400000       1.03460000
H       -0.56780000      -0.94490000      -1.80210000
H        0.85020000       0.07310000      -2.07710000
H        1.15390000      -2.73020000      -1.60500000
H        3.44120000      -2.24500000      -0.65300000
H        3.01240000      -0.47810000      -0.52810000
H        1.57230000      -2.79960000       0.98580000
H        2.33800000       0.13480000       2.32770000
H        0.70030000       0.73740000       2.67410000
H        1.16940000      -0.89390000       3.16680000
