16
Properties=species:S:1:pos:R:3 gdb_77842=T pbc="F F F"
C       -0.25900000       1.59890000      -0.01890000
C        0.03460000       0.10510000      -0.02920000
C        0.75000000      -0.60370000      -1.18350000
C        2.21040000      -0.35850000      -1.25290000
C        2.88310000       0.84990000      -0.86380000
C        3.50700000       1.83280000      -0.56310000
N        1.69110000      -1.34460000      -0.23550000
C        1.13550000      -0.52360000       0.84830000
O        1.43780000      -0.50010000       1.99690000
H        0.62700000       2.18530000      -0.26570000
H       -1.04810000       1.84070000      -0.73770000
H       -0.60450000       1.90060000       0.97450000
H       -0.88240000      -0.45530000       0.19630000
H        0.25000000      -1.15120000      -1.97460000
H        2.71730000      -0.89700000      -2.05060000
H        4.04590000       2.70530000      -0.28560000
