18
Properties=species:S:1:pos:R:3 gdb_63228=T pbc="F F F"
C        0.14220000       1.49400000      -0.13320000
C        0.01640000      -0.03060000      -0.01280000
C       -1.45720000      -0.44920000       0.04980000
N        0.65080000      -0.65440000      -1.19360000
C        1.54300000      -1.44140000      -0.76700000
O        1.75120000      -1.57160000       0.56570000
C        0.84050000      -0.65930000       1.19320000
C        1.60160000       0.34390000       2.03790000
O        2.78660000       0.53150000       1.98290000
H        1.18960000       1.80420000      -0.17320000
H       -0.34140000       1.82030000      -1.05730000
H       -0.34320000       2.00450000       0.70520000
H       -1.98190000      -0.10830000      -0.84670000
H       -1.55110000      -1.53770000       0.10530000
H       -1.94850000      -0.01270000       0.92630000
H        2.18970000      -2.05930000      -1.37950000
H        0.17860000      -1.22910000       1.85720000
H        0.94690000       0.91720000       2.73380000
