19
Properties=species:S:1:pos:R:3 gdb_1688=T pbc="F F F"
C       -0.10520000       1.53420000      -0.00690000
C       -0.01070000       0.00230000       0.03310000
C        0.85570000      -0.45990000       1.21440000
C       -1.41100000      -0.63110000       0.05950000
O       -2.20660000      -0.20510000      -1.05860000
C       -1.42260000      -2.16450000       0.08900000
O       -2.74080000      -2.65600000      -0.01210000
H        0.88430000       1.98260000      -0.14060000
H       -0.75300000       1.87030000      -0.81960000
H       -0.52180000       1.91960000       0.93120000
H        0.47670000      -0.33670000      -0.89590000
H        0.36970000      -0.22840000       2.16950000
H        1.05650000      -1.53440000       1.19070000
H        1.82080000       0.05620000       1.20330000
H       -1.96330000      -0.26480000       0.93440000
H       -1.69910000      -0.38630000      -1.85940000
H       -0.78500000      -2.54320000      -0.73330000
H       -1.00430000      -2.54270000       1.02650000
H       -3.18100000      -2.06470000      -0.63760000
