12
Properties=species:S:1:pos:R:3 gdb_53717=T pbc="F F F"
N       -0.02330000       1.35100000       0.00870000
C        0.06230000      -0.00870000       0.00140000
O        1.11090000      -0.62350000      -0.01140000
C       -1.22820000      -0.68320000       0.01000000
C       -2.25950000      -1.32470000       0.01640000
C       -3.41300000      -2.02410000       0.02370000
C       -4.45780000      -2.65140000       0.03030000
C       -5.61540000      -3.34970000       0.03760000
C       -6.65180000      -3.97330000       0.04400000
H        0.83110000       1.88390000       0.00390000
H       -0.90830000       1.82710000       0.01990000
H       -7.56000000      -4.52410000       0.04960000
