14
Properties=species:S:1:pos:R:3 gdb_130357=T pbc="F F F"
N       -0.17400000       1.49080000       0.12570000
C        0.04470000       0.14850000      -0.00000000
N       -0.90840000      -0.74010000       0.01170000
H       -1.88800000      -0.43070000       0.03620000
C       -0.90030000      -2.11810000       0.00130000
C       -2.17120000      -2.75960000      -0.01220000
O       -3.29040000      -2.26820000      -0.01520000
O       -1.89910000      -4.10800000      -0.01820000
N       -0.49590000      -4.32510000      -0.00760000
C        0.06410000      -3.14020000       0.00520000
H        0.54370000       2.09930000      -0.23510000
H       -1.11250000       1.83870000      -0.00970000
H        1.07160000      -0.19020000      -0.03960000
H        1.14480000      -3.08100000       0.01720000
