22
Properties=species:S:1:pos:R:3 gdb_76679=T pbc="F F F"
C       -0.24510000       1.26880000       0.77120000
C        0.03490000      -0.05030000       0.08390000
C        0.50460000      -0.16130000      -1.33430000
C        0.72240000       1.03520000      -2.23510000
N        1.38940000      -0.52010000      -0.21870000
C        2.55280000       0.28890000       0.12010000
C        3.80170000      -0.40580000      -0.37830000
C        4.49170000       0.00810000      -1.60580000
O        5.00820000       0.35550000      -0.31910000
H       -0.06610000       1.18530000       1.84900000
H        0.36830000       2.09080000       0.39780000
H       -1.29580000       1.54680000       0.63550000
H       -0.60740000      -0.85320000       0.44840000
H        0.17330000      -1.03980000      -1.88890000
H        0.94650000       1.95720000      -1.69610000
H        1.54310000       0.84850000      -2.93690000
H       -0.18070000       1.21430000      -2.82840000
H        2.54660000       1.31760000      -0.26850000
H        2.60800000       0.36150000       1.21360000
H        3.89910000      -1.44400000      -0.06050000
H        5.08210000      -0.71390000      -2.16820000
H        4.09860000       0.84080000      -2.18880000
