24
Properties=species:S:1:pos:R:3 gdb_118037=T pbc="F F F"
C       -0.07990000       1.59660000       0.03390000
C        0.05740000       0.07170000       0.04760000
C        0.68910000      -0.47980000      -1.23400000
C        0.80770000      -2.01510000      -1.27700000
C        1.34230000      -2.50260000      -2.63200000
N        1.58700000      -2.55130000      -0.15840000
C        2.98760000      -2.19230000      -0.00210000
C        1.02730000      -3.41930000       0.73460000
O        1.59160000      -3.93130000       1.67960000
H        0.89690000       2.08180000      -0.07260000
H       -0.70690000       1.93280000      -0.79940000
H       -0.53280000       1.96300000       0.96020000
H        0.65560000      -0.23620000       0.91310000
H       -0.93200000      -0.38440000       0.18750000
H        0.08890000      -0.17130000      -2.09950000
H        1.67910000      -0.02920000      -1.38490000
H       -0.20100000      -2.42740000      -1.14770000
H        1.42220000      -3.59330000      -2.64840000
H        0.66690000      -2.19480000      -3.43580000
H        2.32880000      -2.08340000      -2.85340000
H        3.10970000      -1.11450000       0.15140000
H        3.36030000      -2.72180000       0.87480000
H        3.57650000      -2.48750000      -0.87700000
H       -0.03730000      -3.61520000       0.49930000
