14
Properties=species:S:1:pos:R:3 gdb_2084=T pbc="F F F"
O        0.01290000      -0.05180000       0.07560000
C       -0.01900000       1.15150000       0.00570000
N       -1.18490000       1.87200000      -0.00780000
C       -1.34040000       3.31800000       0.00790000
C       -0.01680000       3.95320000       0.42170000
C        1.10070000       3.26210000      -0.34340000
O        1.14080000       1.86190000      -0.04650000
H       -2.00450000       1.28780000       0.01830000
H       -1.63700000       3.68790000      -0.98490000
H       -2.14020000       3.58990000       0.70570000
H       -0.02350000       5.02530000       0.20480000
H        0.14970000       3.82430000       1.49650000
H        0.97260000       3.40040000      -1.42620000
H        2.08590000       3.64450000      -0.06740000
