16
Properties=species:S:1:pos:R:3 gdb_2072=T pbc="F F F"
O        0.01080000      -0.08530000       0.08830000
C       -0.01690000       1.13080000       0.03630000
C       -1.32860000       1.91170000       0.04230000
C       -1.19500000       3.38390000       0.44800000
C       -0.03140000       4.02830000      -0.30910000
C        1.27400000       3.31320000       0.03590000
N        1.13070000       1.86800000      -0.09280000
H       -1.73300000       1.83950000      -0.97600000
H       -2.02060000       1.36370000       0.68630000
H       -2.13140000       3.91620000       0.25200000
H       -1.01190000       3.45920000       1.52790000
H       -0.21250000       3.96210000      -1.38910000
H        0.06730000       5.08950000      -0.06020000
H        2.08000000       3.64580000      -0.62780000
H        1.57450000       3.58000000       1.06150000
H        1.96900000       1.30500000      -0.06070000
