17
Properties=species:S:1:pos:R:3 gdb_104571=T pbc="F F F"
O        0.14590000       1.16570000      -0.43510000
C       -0.02940000      -0.18860000      -0.08590000
C       -1.49870000      -0.53550000       0.17910000
C       -2.40020000      -0.40500000      -1.10280000
C       -2.38270000      -1.93810000      -1.20160000
O       -2.66510000      -2.71770000      -2.05940000
C       -1.78160000      -2.07620000       0.20840000
C       -2.04850000       0.22540000       1.35450000
O       -1.46910000       1.11290000       1.93530000
H       -0.08910000       1.67230000       0.35280000
H        0.33980000      -0.78330000      -0.92940000
H        0.56630000      -0.46590000       0.79730000
H       -3.41170000      -0.03500000      -0.89610000
H       -1.97580000       0.17330000      -1.92610000
H       -0.91980000      -2.73890000       0.32540000
H       -2.54640000      -2.36550000       0.93910000
H       -3.07530000      -0.07720000       1.66600000
