20
Properties=species:S:1:pos:R:3 gdb_12564=T pbc="F F F"
C        0.01240000       1.55660000       0.08450000
C       -0.00870000       0.03390000       0.00290000
C        0.66210000      -0.48200000      -1.28320000
C        0.27610000      -1.91780000      -1.68960000
O       -0.06820000      -2.78320000      -0.62110000
C        0.83190000      -2.80990000       0.47180000
C        0.45430000      -1.77100000       1.52730000
O        0.69660000      -0.43220000       1.15430000
H        1.04080000       1.92800000       0.02630000
H       -0.56220000       1.99770000      -0.73530000
H       -0.41640000       1.88980000       1.03300000
H       -1.05050000      -0.32150000       0.04740000
H        0.41840000       0.17980000      -2.12290000
H        1.74300000      -0.39880000      -1.12550000
H       -0.61830000      -1.90030000      -2.32100000
H        1.08950000      -2.35710000      -2.28970000
H        0.75330000      -3.80830000       0.91990000
H        1.87270000      -2.66930000       0.14450000
H       -0.60940000      -1.91840000       1.77730000
H        1.04520000      -1.93950000       2.43520000
