20
Properties=species:S:1:pos:R:3 gdb_73085=T pbc="F F F"
C        0.01140000       1.54500000      -0.01950000
C       -0.04060000       0.02410000       0.01600000
C       -1.34460000      -0.66510000       0.51480000
C       -0.48230000      -1.67740000       1.32230000
C        0.72070000      -0.70460000       1.16770000
N        2.03990000      -1.24130000       0.91300000
C        2.50400000      -1.10650000      -0.25700000
O        1.89410000      -0.60580000      -1.36150000
C        0.45680000      -0.58800000      -1.29400000
H        1.01470000       1.89770000      -0.28330000
H       -0.68840000       1.94730000      -0.76210000
H       -0.25080000       1.97330000       0.95330000
H       -1.91850000      -0.00080000       1.16660000
H       -2.02140000      -1.06950000      -0.24340000
H       -0.80330000      -1.91700000       2.33760000
H       -0.31110000      -2.61160000       0.78220000
H        0.79290000      -0.05710000       2.04880000
H        3.52530000      -1.40180000      -0.49260000
H        0.10550000      -1.62170000      -1.40280000
H        0.12900000      -0.01910000      -2.16780000
