16
Properties=species:S:1:pos:R:3 gdb_37696=T pbc="F F F"
C       -0.11030000       1.56510000       0.00800000
C        1.42960000       1.25140000       0.00100000
C        1.25720000       0.02860000       0.95350000
C        1.86950000      -1.02270000       0.00080000
N        1.10930000      -2.28040000       0.00550000
C       -0.15450000      -2.18140000       0.01140000
O       -0.88710000      -1.01600000       0.01390000
C        0.01660000       0.04870000       0.00870000
C        1.24810000       0.02700000      -0.94770000
H       -0.51030000       2.03320000       0.91220000
H       -0.51890000       2.03170000      -0.89310000
H        2.25090000       1.96350000      -0.00350000
H        1.22060000       0.03210000       2.04230000
H        2.94210000      -1.21840000      -0.00410000
H       -0.80880000      -3.04840000       0.01530000
H        1.20120000       0.02860000      -2.03620000
