16
Properties=species:S:1:pos:R:3 gdb_82691=T pbc="F F F"
O       -0.08230000       1.48500000       0.14870000
C       -0.02310000       0.08480000       0.08630000
C        0.20790000      -0.73610000       1.39000000
C       -0.93320000      -0.23550000       2.28690000
N       -1.92620000      -0.88290000       1.35960000
C       -0.85000000      -1.75370000       0.83410000
C       -1.36310000      -0.63860000      -0.02830000
C       -2.24690000      -0.65630000      -1.14100000
C       -2.96070000      -0.65890000      -2.10880000
H        0.80320000       1.83910000       0.02190000
H        0.63950000      -0.26520000      -0.71510000
H        1.21360000      -0.94160000       1.75090000
H       -0.98970000      -0.75230000       3.24770000
H       -1.04680000       0.84410000       2.41500000
H       -0.91230000      -2.82650000       0.71550000
H       -3.60330000      -0.65960000      -2.95380000
