22
Properties=species:S:1:pos:R:3 gdb_118403=T pbc="F F F"
C        0.55740000       1.44000000       1.33600000
C        0.58480000       0.12840000       0.54510000
N        0.81070000      -1.00420000       1.42160000
C        0.02660000      -1.95790000       1.68700000
C        0.48770000      -3.12010000       2.53430000
C        1.96390000      -3.07930000       2.89670000
O        2.23150000      -4.24190000       3.67230000
O       -1.27180000      -2.19990000       1.31690000
C       -2.17940000      -1.15410000       0.99760000
H        1.45120000       1.52400000       1.96060000
H        0.52140000       2.29900000       0.65860000
H       -0.31540000       1.48850000       1.99600000
H       -0.30700000       0.05260000      -0.08720000
H        1.44090000       0.15990000      -0.14140000
H       -0.11710000      -3.15570000       3.44870000
H        0.26350000      -4.05030000       1.99910000
H        2.57050000      -3.05380000       1.98030000
H        2.18450000      -2.15850000       3.45320000
H        3.16030000      -4.22390000       3.91900000
H       -3.17390000      -1.51940000       1.26800000
H       -1.96660000      -0.24650000       1.57010000
H       -2.17170000      -0.92130000      -0.07230000
