11
Properties=species:S:1:pos:R:3 gdb_132334=T pbc="F F F"
F        0.05920000       0.06050000       0.00250000
C       -0.03070000       1.37370000       0.01090000
C       -1.22770000       1.99150000       0.03090000
C       -1.26850000       3.43050000       0.03920000
N       -2.29000000       4.16560000       0.05740000
O        0.03910000       4.03930000       0.02420000
C        1.11130000       3.27190000       0.00510000
F        2.19280000       3.99850000      -0.00590000
N        1.18750000       2.00190000      -0.00280000
H       -2.16190000       1.45100000       0.04100000
H       -2.05390000       5.15610000       0.05940000
