21
Properties=species:S:1:pos:R:3 gdb_92209=T pbc="F F F"
O        0.03000000       1.41300000      -0.20290000
C        0.02750000       0.00290000      -0.03380000
C        0.69380000      -0.48590000       1.28100000
C       -0.15660000      -1.66930000       1.79880000
C       -1.16100000      -1.32960000       2.94560000
C       -2.31050000      -1.22260000       1.92060000
C       -2.33890000       0.10690000       1.11170000
C       -1.40930000      -0.51230000       0.01800000
C       -1.37530000      -1.83550000       0.82000000
H        0.94460000       1.70790000      -0.24680000
H        0.53010000      -0.47790000      -0.88990000
H        1.73730000      -0.77160000       1.11390000
H        0.70010000       0.34060000       1.99990000
H        0.44220000      -2.56300000       1.98120000
H       -1.30170000      -2.18060000       3.61860000
H       -0.94240000      -0.44330000       3.55160000
H       -3.27820000      -1.64060000       2.20100000
H       -3.33110000       0.34680000       0.72340000
H       -1.95120000       0.99330000       1.62040000
H       -1.86700000      -0.54640000      -0.97230000
H       -1.53560000      -2.79540000       0.32970000
