14
Properties=species:S:1:pos:R:3 gdb_127805=T pbc="F F F"
C        0.13020000       1.40900000      -0.02170000
N        0.06090000      -0.03370000       0.02950000
N       -0.07620000      -0.79540000      -1.08040000
N       -0.11110000      -2.01700000      -0.77050000
N        0.00750000      -2.09750000       0.61480000
C        0.00470000      -3.31990000       1.28670000
O       -0.09660000      -4.38950000       0.75790000
C        0.12290000      -0.80840000       1.17470000
N        0.25090000      -0.34160000       2.35000000
H        1.07830000       1.75460000       0.39870000
H        0.05150000       1.70610000      -1.06700000
H       -0.68810000       1.84490000       0.55740000
H        0.10900000      -3.16630000       2.37550000
H        0.27790000      -1.05800000       3.06870000
