19
Properties=species:S:1:pos:R:3 gdb_91220=T pbc="F F F"
C       -0.05320000       1.52780000      -0.03790000
N        0.07790000       0.10050000       0.13380000
C       -1.13850000      -0.71530000       0.30500000
C       -0.43380000      -1.53290000       1.39560000
O        0.47620000      -2.55070000       0.88210000
C        1.55790000      -1.68020000       0.92070000
N        2.77170000      -1.87260000       0.68460000
C        0.71570000      -0.48640000       1.35500000
C        1.20190000       0.40870000       2.46470000
H        0.93470000       1.99760000      -0.04890000
H       -0.52140000       1.72730000      -1.00790000
H       -0.66630000       2.02640000       0.73630000
H       -1.98740000      -0.15080000       0.72490000
H       -1.47080000      -1.25590000      -0.58750000
H       -0.97460000      -1.88230000       2.27320000
H        2.95280000      -2.83480000       0.39290000
H        2.07340000       0.98250000       2.13420000
H        0.42830000       1.10920000       2.79140000
H        1.51220000      -0.19160000       3.32470000
