13
Properties=species:S:1:pos:R:3 gdb_28172=T pbc="F F F"
C       -0.01340000       1.42880000       0.10130000
C       -0.01870000      -0.04360000      -0.06940000
N       -0.20440000      -0.74520000      -1.14470000
C       -0.09850000      -2.05460000      -0.69650000
C        0.14470000      -2.03960000       0.62510000
O        0.25900000      -3.27340000       1.12770000
C        0.05880000      -4.03650000      -0.03390000
N       -0.15390000      -3.37210000      -1.12480000
O        0.21200000      -0.79600000       1.10980000
H        0.94980000       1.77910000       0.48630000
H       -0.19960000       1.89030000      -0.86880000
H       -0.78870000       1.74840000       0.80520000
H        0.10510000      -5.10240000       0.11460000
