17
Properties=species:S:1:pos:R:3 gdb_46271=T pbc="F F F"
O       -0.08360000      -0.01390000      -0.05760000
C       -0.03920000       1.18520000      -0.05380000
N       -1.01870000       2.15510000      -0.06970000
C       -0.11050000       3.29860000       0.02930000
C        1.06300000       2.27700000      -0.01130000
C        2.19570000       2.32790000       1.06830000
C        3.21500000       2.49520000      -0.06790000
N        3.07970000       1.28240000      -0.90380000
C        2.13860000       2.41250000      -1.09320000
H       -2.02470000       2.08960000      -0.02760000
H       -0.16230000       3.99040000      -0.81910000
H       -0.19250000       3.86250000       0.96510000
H        2.10450000       3.20520000       1.71300000
H        2.32090000       1.42660000       1.67200000
H        4.13160000       3.07110000      -0.06000000
H        3.76990000       1.34990000      -1.65210000
H        2.03340000       2.89760000      -2.05640000
