18
Properties=species:S:1:pos:R:3 gdb_70412=T pbc="F F F"
C        0.13950000       1.51590000       0.08900000
C        0.01000000       0.02600000      -0.02930000
C       -0.90680000      -0.79850000       0.78640000
N        0.54360000      -0.94770000       1.01400000
C        1.01840000      -1.83220000      -0.10040000
C        0.53560000      -0.83640000      -1.19250000
O       -0.48600000      -1.21490000      -2.09420000
C        1.66800000      -0.16910000      -1.96210000
O        2.82220000      -0.14630000      -1.62230000
H        1.16040000       1.84970000      -0.12150000
H       -0.54030000       2.02100000      -0.60680000
H       -0.11450000       1.83520000       1.10340000
H       -1.41480000      -0.29330000       1.60240000
H       -1.46250000      -1.61360000       0.33080000
H        2.10560000      -1.91710000      -0.07690000
H        0.54820000      -2.82040000      -0.12130000
H       -0.13770000      -1.88830000      -2.69000000
H        1.32100000       0.30650000      -2.90790000
