19
Properties=species:S:1:pos:R:3 gdb_22446=T pbc="F F F"
C        0.02220000       1.56980000      -0.04250000
C       -0.00670000       0.03220000       0.04830000
C       -1.41040000      -0.51370000      -0.01900000
N       -2.07820000      -0.70620000      -1.08880000
O       -1.35300000      -0.35860000      -2.23360000
C       -2.13900000      -0.82550000       1.28580000
C       -3.61760000      -1.21940000       1.12550000
C       -1.40280000      -1.86410000       2.02380000
N       -0.82640000      -2.68100000       2.60390000
H        1.05140000       1.93440000       0.02050000
H       -0.40520000       1.90580000      -0.99000000
H       -0.54520000       2.03160000       0.77240000
H        0.56910000      -0.39010000      -0.77940000
H        0.46390000      -0.29760000       0.97960000
H       -1.96560000      -0.58740000      -2.94080000
H       -2.08250000       0.08150000       1.90620000
H       -3.71430000      -2.12670000       0.52760000
H       -4.06540000      -1.39120000       2.10700000
H       -4.15810000      -0.41920000       0.61730000
