16
Properties=species:S:1:pos:R:3 gdb_97795=T pbc="F F F"
O        0.06470000       1.46130000      -0.15430000
C        0.04070000       0.10810000       0.27400000
C       -1.29430000      -0.48960000       0.24490000
C       -2.40170000      -0.95850000       0.16570000
C       -3.73160000      -1.50230000       0.13160000
N       -4.31700000      -1.82300000      -1.17620000
C       -4.02560000      -2.93520000      -0.25960000
C       -2.92110000      -3.84280000      -0.68700000
O       -2.82960000      -4.98910000      -0.32840000
H       -0.35050000       1.49760000      -1.02250000
H        0.72770000      -0.51620000      -0.31920000
H        0.42540000       0.11230000       1.29980000
H       -4.40150000      -1.11270000       0.89610000
H       -5.31350000      -1.62150000      -1.17460000
H       -4.83550000      -3.42580000       0.27440000
H       -2.18700000      -3.36860000      -1.37100000
