12
Properties=species:S:1:pos:R:3 gdb_3650=T pbc="F F F"
C       -0.02420000       1.56220000      -0.01380000
C        1.54830000       1.45150000      -0.09840000
C        1.34950000      -0.00370000       0.32250000
C        1.56510000      -1.31770000       0.67380000
N        0.33090000      -1.86470000       0.91720000
N       -0.62930000      -0.98320000       0.74190000
N        0.01750000       0.13530000       0.38170000
H       -0.41640000       2.21740000       0.76580000
H       -0.54310000       1.73600000      -0.95800000
H        1.95970000       1.60100000      -1.09820000
H        2.08560000       2.07930000       0.61460000
H        2.46310000      -1.90340000       0.77130000
