18
Properties=species:S:1:pos:R:3 gdb_49754=T pbc="F F F"
O       -0.40550000       0.44430000      -0.70130000
C        0.11660000       0.98570000       0.23730000
C        1.28360000       1.96560000       0.13690000
C        1.35080000       2.69690000      -1.19040000
C        1.42500000       4.02720000      -1.15790000
C        1.41640000       4.69770000       0.20340000
C        2.36580000       3.89010000       1.12760000
N        1.26770000       2.86840000       1.30750000
C        0.30590000       4.00620000       1.03620000
H       -0.19790000       0.79270000       1.28720000
H        2.17430000       1.32230000       0.24940000
H        1.32030000       2.11590000      -2.10480000
H        1.47530000       4.62910000      -2.05930000
H        1.48000000       5.78660000       0.16560000
H        3.29560000       3.50730000       0.69960000
H        2.56620000       4.37660000       2.08690000
H        0.07940000       4.51020000       1.98000000
H       -0.62070000       3.73200000       0.52520000
