20
Properties=species:S:1:pos:R:3 gdb_109330=T pbc="F F F"
C       -0.17630000       1.56540000      -0.01050000
C        0.06990000       0.04560000       0.03510000
C        0.76610000      -0.49390000      -1.17870000
C        2.03600000      -0.89950000      -1.28230000
C        2.36410000      -1.34710000      -2.68580000
C        1.04200000      -1.09160000      -3.45580000
N        0.10620000      -0.60560000      -2.42430000
C       -1.20440000      -0.39550000      -2.71730000
O       -1.68320000      -0.55690000      -3.82370000
H        0.77030000       2.10380000      -0.11290000
H       -0.81470000       1.85170000      -0.85080000
H       -0.66310000       1.90020000       0.91010000
H        0.69470000      -0.19190000       0.90120000
H       -0.88110000      -0.47920000       0.18970000
H        2.73990000      -0.91250000      -0.46180000
H        3.19780000      -0.78210000      -3.11800000
H        2.65610000      -2.40370000      -2.72150000
H        1.14520000      -0.33600000      -4.23970000
H        0.62950000      -1.98790000      -3.92470000
H       -1.79800000      -0.06340000      -1.84780000
