15
Properties=species:S:1:pos:R:3 gdb_5020=T pbc="F F F"
C        0.00610000       1.50420000      -0.05390000
C       -0.00420000       0.00860000       0.01120000
C       -1.13190000      -0.70510000       0.18710000
N       -1.08580000      -2.08940000       0.24060000
C        0.11770000      -2.71930000       0.11130000
N        1.24220000      -2.12560000      -0.05920000
C        1.27310000      -0.71360000      -0.12270000
N        2.36210000      -0.05680000      -0.29040000
H        0.65530000       1.91430000       0.72640000
H        0.43250000       1.84040000      -1.00450000
H       -0.99910000       1.92110000       0.05800000
H       -2.11300000      -0.25870000       0.29460000
H       -1.92680000      -2.62560000       0.37130000
H        0.07800000      -3.80630000       0.16240000
H        3.13470000      -0.72210000      -0.36180000
