17
Properties=species:S:1:pos:R:3 gdb_83453=T pbc="F F F"
O       -0.59260000       1.75840000       0.40010000
C       -0.62160000       0.50320000      -0.19840000
C       -0.22840000      -0.78000000       0.52680000
C       -0.73240000      -0.68170000       1.95730000
O       -2.06700000      -0.29020000       1.50480000
C       -1.67580000      -0.49600000       0.13410000
C       -2.69920000      -1.15610000      -0.75350000
C       -2.20030000      -1.40880000      -2.09940000
C       -1.76940000      -1.61400000      -3.20200000
H       -1.30280000       1.75830000       1.05660000
H       -0.31290000       0.52990000      -1.23870000
H        0.48610000      -1.49400000       0.13980000
H       -0.78170000      -1.63830000       2.48600000
H       -0.27720000       0.08100000       2.59820000
H       -3.02120000      -2.09630000      -0.28760000
H       -3.59000000      -0.51400000      -0.79770000
H       -1.40160000      -1.79840000      -4.18100000
