18
Properties=species:S:1:pos:R:3 gdb_11112=T pbc="F F F"
C        0.33480000       1.37650000       0.40700000
C        0.06600000      -0.11180000       0.16330000
C       -1.32810000      -0.38720000      -0.39970000
C       -1.72370000      -1.88750000      -0.45560000
C       -2.59540000      -1.60120000       0.80300000
N       -2.47150000      -0.15430000       0.52760000
C       -3.96660000      -2.11530000       0.81510000
N       -5.04150000      -2.54000000       0.82510000
H        1.34230000       1.53650000       0.80160000
H        0.24230000       1.95030000      -0.52130000
H       -0.37000000       1.80350000       1.12930000
H        0.80490000      -0.50680000      -0.54630000
H        0.20290000      -0.67600000       1.09620000
H       -1.45200000       0.16010000      -1.34200000
H       -2.32110000      -2.15230000      -1.32770000
H       -0.92150000      -2.61410000      -0.32240000
H       -2.10270000      -1.93950000       1.72440000
H       -2.28300000       0.42600000       1.33840000
