19
Properties=species:S:1:pos:R:3 gdb_99494=T pbc="F F F"
C        0.19410000       1.51930000      -0.02430000
N       -0.25150000       0.17560000      -0.36250000
C        0.61150000      -0.54680000      -1.28500000
C        2.04240000      -0.58380000      -0.91600000
C        3.19700000      -0.58600000      -0.57960000
C        0.11940000      -1.98650000      -1.42150000
N       -0.46840000      -2.56380000      -0.46300000
O        0.44750000      -2.46570000      -2.64400000
C        0.15700000      -3.83100000      -2.91120000
H        1.20050000       1.56950000       0.42050000
H        0.19740000       2.14300000      -0.92630000
H       -0.51960000       1.95830000       0.67830000
H       -0.38360000      -0.39930000       0.46300000
H        0.53300000      -0.08120000      -2.27640000
H        4.21850000      -0.59330000      -0.28900000
H       -0.73200000      -3.52630000      -0.66240000
H        0.66980000      -4.49130000      -2.20200000
H       -0.92180000      -4.02390000      -2.87290000
H        0.52280000      -4.02580000      -3.91960000
