23
Properties=species:S:1:pos:R:3 gdb_82935=T pbc="F F F"
C       -0.27760000       1.55180000      -0.07130000
C        0.02860000       0.06830000       0.04750000
C        1.32710000      -0.60020000      -0.35720000
C        2.64080000       0.19330000      -0.37030000
C        3.02480000       0.46210000       1.09320000
C        2.22440000       1.42740000       1.93150000
C        1.89860000      -0.04750000       1.96940000
C        0.84300000      -0.69630000       1.08400000
C        0.24270000      -1.96880000       1.64540000
H        0.60500000       2.16050000      -0.27840000
H       -0.96810000       1.70940000      -0.90690000
H       -0.75890000       1.95050000       0.82810000
H       -0.83490000      -0.52430000      -0.25220000
H        1.26450000      -1.45440000      -1.02590000
H        3.41870000      -0.41680000      -0.84030000
H        2.57610000       1.11480000      -0.96260000
H        4.06240000       0.30830000       1.37090000
H        2.72560000       1.82760000       2.80800000
H        1.54800000       2.12990000       1.46970000
H        2.11100000      -0.57580000       2.89300000
H       -0.38750000      -1.76280000       2.51920000
H       -0.38000000      -2.47600000       0.90190000
H        1.02380000      -2.67150000       1.95990000
