18
Properties=species:S:1:pos:R:3 gdb_87059=T pbc="F F F"
C        0.09820000       1.45880000      -0.38740000
N        0.16180000       0.01850000      -0.17340000
C        1.47060000      -0.59160000      -0.06690000
C        0.58370000      -0.49400000       1.14790000
C        0.96790000       0.42140000       2.19290000
C        1.27210000       1.17920000       3.07590000
C       -0.17340000      -1.72150000       1.57920000
C        0.00540000      -2.35260000       2.89120000
O       -1.15410000      -1.56730000       2.59960000
H        0.89760000       2.01910000       0.11790000
H        0.16180000       1.64680000      -1.46340000
H       -0.86510000       1.83110000      -0.02770000
H        1.59740000      -1.55140000      -0.56300000
H        2.34900000       0.05140000      -0.07170000
H        1.53780000       1.84860000       3.85650000
H       -0.48800000      -2.33390000       0.73420000
H       -0.16670000      -3.42270000       2.99770000
H        0.69410000      -1.90960000       3.60770000
