18
Properties=species:S:1:pos:R:3 gdb_50432=T pbc="F F F"
O        0.33370000       0.15870000      -1.18180000
C        0.38150000       1.33180000      -0.87310000
N        1.20940000       1.86470000       0.07080000
C        2.15770000       0.98930000       0.75750000
C        3.44820000       1.68360000       1.09210000
C        3.56570000       3.00910000       1.13860000
C        2.40490000       3.90060000       0.90280000
C        1.93060000       4.24000000      -0.49760000
C        1.15020000       3.27110000       0.36760000
H       -0.25840000       2.10650000      -1.33910000
H        1.70930000       0.57090000       1.67300000
H        2.32810000       0.13740000       0.09340000
H        4.29500000       1.03970000       1.30970000
H        4.51720000       3.47460000       1.37940000
H        2.26650000       4.68260000       1.64440000
H        1.50940000       5.22400000      -0.67290000
H        2.48380000       3.81470000      -1.32690000
H        0.20360000       3.61340000       0.77770000
