19
Properties=species:S:1:pos:R:3 gdb_85525=T pbc="F F F"
C        0.26460000       1.55160000      -0.00650000
C       -0.01620000       0.04600000       0.02900000
N        0.48260000      -0.57510000      -1.19110000
C        1.07310000      -1.79510000      -1.36600000
O        1.46500000      -2.16220000      -2.45830000
C        1.17900000      -2.68930000      -0.13590000
C        1.18330000      -1.95390000       1.18190000
N        2.05490000      -0.76530000       1.25570000
C        0.59310000      -0.59950000       1.25940000
H        1.34330000       1.72920000      -0.01110000
H       -0.17340000       2.01190000      -0.89860000
H       -0.17180000       2.04340000       0.86840000
H       -1.10650000      -0.10230000       0.10130000
H        0.44030000      -0.02860000      -2.03960000
H        0.32720000      -3.38160000      -0.16240000
H        2.08110000      -3.29380000      -0.26350000
H        1.11600000      -2.58160000       2.06810000
H        2.42440000      -0.65350000       2.19540000
H        0.11140000      -0.30190000       2.18830000
