17
Properties=species:S:1:pos:R:3 gdb_80153=T pbc="F F F"
C       -0.23320000       1.39890000       0.26570000
C       -0.01510000      -0.06110000      -0.05120000
C        0.71310000      -0.56850000      -1.24580000
C        1.56760000       0.34820000      -2.10370000
C        2.71090000       0.76200000      -1.17540000
O        3.64830000       1.47370000      -1.41910000
C        2.42530000       0.14320000       0.19400000
N        3.07370000       0.38220000       1.25600000
N        1.31200000      -0.71750000       0.11390000
H        0.48930000       2.06240000      -0.21560000
H       -1.23360000       1.69820000      -0.06260000
H       -0.16700000       1.56690000       1.34520000
H       -0.80820000      -0.70560000       0.32260000
H        0.38280000      -1.50210000      -1.69120000
H        1.97460000      -0.17740000      -2.97310000
H        1.05050000       1.23590000      -2.48130000
H        3.84550000       1.01440000       1.01560000
