15
Properties=species:S:1:pos:R:3 gdb_43314=T pbc="F F F"
O        0.03520000      -0.01700000       0.11550000
C       -0.02310000       1.18700000       0.01800000
C       -1.22790000       2.04390000      -0.02030000
C       -0.88880000       3.33880000       0.00940000
C        0.60830000       3.56430000       0.05610000
N        1.01330000       4.11490000       1.37050000
C        1.71370000       3.19990000       1.92610000
N        2.01390000       2.07040000       1.18790000
C        1.20230000       2.13070000      -0.02870000
H       -2.22900000       1.63220000      -0.02810000
H       -1.57960000       4.17380000       0.04250000
H        0.93870000       4.23650000      -0.74290000
H        2.12280000       3.29210000       2.92860000
H        2.13710000       1.17720000       1.64410000
H        1.80030000       1.92550000      -0.92120000
