14
Properties=species:S:1:pos:R:3 gdb_27665=T pbc="F F F"
N        0.06260000       1.38010000       0.24500000
C       -0.02610000      -0.00160000       0.08090000
N       -1.10840000      -0.72310000       0.11420000
C       -0.67640000      -2.05410000       0.01110000
C       -1.50340000      -3.19460000       0.00280000
C       -2.15170000      -4.21250000      -0.01180000
C        0.69240000      -2.07570000      -0.09950000
O        1.59330000      -3.06470000      -0.23810000
N        1.11300000      -0.77080000      -0.05790000
H        0.52090000       1.84740000      -0.53040000
H       -0.87070000       1.75850000       0.35710000
H       -2.74360000      -5.09350000      -0.02280000
H        1.10230000      -3.89670000      -0.25500000
H        2.06950000      -0.46320000      -0.00190000
