18
Properties=species:S:1:pos:R:3 gdb_8515=T pbc="F F F"
C       -0.07570000       1.49500000       0.04170000
C        0.02960000       0.00210000      -0.03290000
C        0.93050000      -0.84510000      -0.93410000
C        0.07910000      -2.05330000      -0.45370000
C        0.00970000      -3.37040000      -1.15970000
O        0.44260000      -2.15320000       0.96320000
C       -0.28010000      -0.93940000       1.14730000
C       -1.08710000      -1.04330000      -0.09980000
H        0.86120000       1.94010000       0.39650000
H       -0.30310000       1.93260000      -0.93730000
H       -0.86950000       1.80250000       0.73170000
H        0.75770000      -0.62160000      -1.99120000
H        2.00430000      -0.89540000      -0.72130000
H        0.99190000      -3.85570000      -1.14480000
H       -0.70850000      -4.03560000      -0.67200000
H       -0.29010000      -3.23290000      -2.20300000
H       -0.52210000      -0.61300000       2.15080000
H       -2.14450000      -0.99280000      -0.32350000
