16
Properties=species:S:1:pos:R:3 gdb_24489=T pbc="F F F"
C       -0.05080000       1.52150000       0.01060000
C        1.41760000       1.88660000      -0.00130000
C        2.18880000       0.78670000      -0.01450000
C        1.33360000      -0.40350000      -0.01290000
N        1.73780000      -1.67280000      -0.02360000
C        0.75940000      -2.58900000      -0.01930000
C       -0.60030000      -2.28560000      -0.00480000
C       -1.00500000      -0.94640000       0.00620000
C       -0.01410000       0.01540000       0.00210000
H       -0.56390000       1.92340000       0.89480000
H       -0.58050000       1.93290000      -0.85940000
H        1.76500000       2.91180000       0.00100000
H        3.27000000       0.74520000      -0.02490000
H        1.08140000      -3.62770000      -0.02800000
H       -1.33160000      -3.08600000      -0.00230000
H       -2.05890000      -0.68420000       0.01760000
