17
Properties=species:S:1:pos:R:3 gdb_16203=T pbc="F F F"
N       -0.14890000       1.28570000       0.25370000
C       -0.08090000       0.02370000       0.25310000
O        1.07610000      -0.69830000       0.34610000
C        0.80460000      -2.10190000       0.17510000
C       -0.68250000      -2.28080000       0.51440000
C       -1.23790000      -0.91400000       0.15160000
C       -2.62610000      -0.43270000       0.46940000
C       -2.24680000      -0.68530000      -0.96090000
H        0.78200000       1.70070000       0.30180000
H        1.01980000      -2.37700000      -0.86480000
H        1.48050000      -2.65360000       0.83170000
H       -1.13860000      -3.10470000      -0.03920000
H       -0.80750000      -2.47940000       1.58470000
H       -3.29660000      -1.13340000       0.95590000
H       -2.70880000       0.59820000       0.79420000
H       -2.08070000       0.17460000      -1.59930000
H       -2.64810000      -1.56340000      -1.45660000
