20
Properties=species:S:1:pos:R:3 gdb_69304=T pbc="F F F"
C        0.16430000       1.56300000       0.09030000
C       -0.01260000       0.08060000      -0.04320000
C       -0.94900000      -0.74070000       0.77960000
N        0.48100000      -0.97330000       0.95940000
C        0.93530000      -1.87100000      -0.18640000
C        2.46540000      -1.91550000      -0.18800000
C        0.34640000      -3.27390000      -0.23730000
C        0.46780000      -0.77530000      -1.18030000
O        0.65900000      -0.57530000      -2.34700000
H        1.16850000       1.87040000      -0.21650000
H       -0.55630000       2.08990000      -0.54400000
H        0.00540000       1.87940000       1.12490000
H       -1.41290000      -0.22890000       1.61870000
H       -1.57920000      -1.49450000       0.31720000
H        2.82300000      -2.52330000       0.64870000
H        2.82760000      -2.34900000      -1.12420000
H        2.88880000      -0.91280000      -0.08410000
H       -0.74530000      -3.28590000      -0.26610000
H        0.70300000      -3.78740000      -1.13500000
H        0.67210000      -3.85000000       0.63560000
