22
Properties=species:S:1:pos:R:3 gdb_113442=T pbc="F F F"
C       -0.42970000       1.45280000       0.23840000
C        0.32720000       0.18230000      -0.16620000
C        1.06680000      -0.43580000       0.99570000
O        0.26140000      -1.11060000       1.98630000
C        1.15960000      -1.87740000       1.20530000
C        0.72550000      -3.06880000       0.34810000
N        1.59320000      -3.93020000       1.18270000
C        2.42200000      -4.91140000       0.52210000
C        2.25250000      -2.76130000       1.80860000
H        0.25540000       2.21710000       0.62110000
H       -0.96650000       1.88070000      -0.61320000
H       -1.15670000       1.23000000       1.02480000
H       -0.37130000      -0.55530000      -0.57630000
H        1.05200000       0.41130000      -0.95870000
H        1.85030000       0.18930000       1.43220000
H       -0.33770000      -3.33040000       0.37080000
H        1.05550000      -2.98340000      -0.70110000
H        3.08240000      -4.47690000      -0.25450000
H        3.05470000      -5.41940000       1.25750000
H        1.79220000      -5.66920000       0.04440000
H        3.25360000      -2.54160000       1.40160000
H        2.30700000      -2.79530000       2.90200000
