17
Properties=species:S:1:pos:R:3 gdb_9015=T pbc="F F F"
C        0.00170000       1.47190000      -0.19360000
C       -0.00180000       0.01970000      -0.09400000
C       -0.00080000      -1.18060000      -0.00160000
C       -0.00960000      -2.64190000       0.09910000
N       -1.34240000      -3.22560000       0.05920000
C       -2.11620000      -3.09610000      -1.16250000
C       -1.88260000      -3.82450000       1.15950000
O       -2.98950000      -4.31460000       1.22450000
H        0.81940000       1.90510000       0.39240000
H        0.12400000       1.80160000      -1.23090000
H       -0.93580000       1.89510000       0.18290000
H        0.59670000      -3.06930000      -0.71260000
H        0.46400000      -2.95530000       1.03700000
H       -1.60920000      -3.59690000      -1.99630000
H       -3.08520000      -3.56440000      -0.99100000
H       -2.25440000      -2.04100000      -1.42190000
H       -1.17500000      -3.82250000       2.01240000
