17
Properties=species:S:1:pos:R:3 gdb_9874=T pbc="F F F"
C        0.45850000       1.48160000      -0.26540000
C       -0.17620000       0.13910000       0.01980000
C        0.50730000      -1.14090000      -0.39530000
C        0.40760000      -0.75670000       1.06790000
O       -1.59320000       0.14410000       0.03700000
C       -2.23160000       0.39060000      -1.19160000
C       -2.17750000      -0.74270000      -2.13840000
N       -2.15610000      -1.62410000      -2.88510000
H        1.54200000       1.41910000      -0.13500000
H        0.27850000       1.82150000      -1.29130000
H        0.07320000       2.24150000       0.42240000
H       -0.11600000      -1.95730000      -0.73650000
H        1.46930000      -1.06760000      -0.89090000
H        1.29910000      -0.42270000       1.58680000
H       -0.29610000      -1.31210000       1.67670000
H       -3.28290000       0.58590000      -0.95820000
H       -1.83780000       1.27980000      -1.70160000
