18
Properties=species:S:1:pos:R:3 gdb_85499=T pbc="F F F"
C        0.14010000       1.69350000      -0.00670000
C        0.01400000       0.16640000       0.04260000
C        0.64990000      -0.52290000      -1.17810000
C        2.07240000      -0.86890000      -0.72840000
O        3.00960000      -1.11280000      -1.43790000
C        2.10000000      -0.84340000       0.80240000
N        0.76120000      -0.41790000       1.17040000
C        0.21250000      -0.74110000       2.37040000
O        0.80320000      -1.29780000       3.27220000
H        1.18430000       2.00050000      -0.13040000
H       -0.43310000       2.09750000      -0.84730000
H       -0.23790000       2.14260000       0.91590000
H       -1.04040000      -0.10430000       0.15150000
H        0.13910000      -1.46580000      -1.40830000
H        0.66040000       0.08300000      -2.08560000
H        2.32270000      -1.83040000       1.22090000
H        2.88520000      -0.16040000       1.15050000
H       -0.85240000      -0.43910000       2.43490000
