21
Properties=species:S:1:pos:R:3 gdb_120936=T pbc="F F F"
C       -0.06250000       1.49130000      -0.06160000
C       -0.09700000       0.00990000       0.27280000
O       -1.26420000      -0.55210000      -0.29960000
C       -1.39760000      -1.92300000      -0.07910000
C       -1.86320000      -2.45760000       1.33240000
C       -3.04420000      -3.11050000       0.60730000
O       -3.78490000      -2.04140000       0.00990000
C       -2.65100000      -2.55360000      -0.70460000
C       -2.84690000      -3.00130000      -2.11600000
H        0.82890000       1.95880000       0.36740000
H       -0.04660000       1.63950000      -1.14510000
H       -0.94700000       1.99400000       0.33920000
H        0.79930000      -0.49890000      -0.12180000
H       -0.09700000      -0.13910000       1.36470000
H       -0.49280000      -2.46340000      -0.40300000
H       -1.15470000      -3.15360000       1.78720000
H       -2.15800000      -1.69040000       2.05180000
H       -3.58180000      -4.02130000       0.84540000
H       -2.91770000      -2.13710000      -2.78540000
H       -2.00660000      -3.61860000      -2.44980000
H       -3.76900000      -3.58110000      -2.20810000
