23
Properties=species:S:1:pos:R:3 gdb_106729=T pbc="F F F"
C        0.00900000       1.51590000      -0.29870000
C       -0.01880000       0.05190000       0.16170000
C       -1.41280000      -0.53970000       0.17930000
C       -2.00010000      -1.08770000      -1.10240000
C       -1.69750000      -2.03880000       0.04550000
C       -0.65130000      -3.12010000      -0.09660000
C       -2.87660000      -2.28050000       0.93510000
C       -3.28890000      -1.16820000       1.54460000
C       -2.41710000       0.01820000       1.19860000
H        1.03130000       1.90690000      -0.31030000
H       -0.40300000       1.61610000      -1.30840000
H       -0.58290000       2.15440000       0.36550000
H        0.62580000      -0.54160000      -0.49690000
H        0.42020000      -0.02140000       1.16610000
H       -3.03880000      -0.88840000      -1.34780000
H       -1.33280000      -1.12260000      -1.95990000
H        0.17800000      -2.80150000      -0.73460000
H       -0.23560000      -3.40800000       0.87580000
H       -1.08240000      -4.02030000      -0.55090000
H       -3.33560000      -3.25940000       1.02940000
H       -4.15230000      -1.08930000       2.19550000
H       -1.90140000       0.40940000       2.08820000
H       -3.00200000       0.85500000       0.79460000
