13
Properties=species:S:1:pos:R:3 gdb_23930=T pbc="F F F"
C        0.11590000      -3.76100000      -0.01970000
C        0.06620000      -2.55300000      -0.01230000
C        0.01500000      -1.19790000      -0.00400000
C       -0.04110000       0.01600000       0.00360000
C       -0.09340000       1.41350000       0.01200000
C       -1.14890000       2.31120000       0.03100000
N       -0.69660000       3.59880000       0.03220000
C        0.61820000       3.50910000       0.01430000
N        1.03800000       2.21920000       0.00150000
H        0.15430000      -4.82190000      -0.02620000
H       -2.20120000       2.07330000       0.04360000
H        1.30810000       4.33980000       0.00980000
H        1.98800000       1.88590000      -0.01280000
