18
Properties=species:S:1:pos:R:3 gdb_125748=T pbc="F F F"
C       -0.04650000       1.46390000      -0.13200000
C       -0.12990000      -0.01940000      -0.04970000
C       -1.17830000      -0.89550000      -0.03000000
C       -2.64570000      -0.58960000      -0.10780000
O       -2.97340000       0.36840000      -1.11080000
C       -0.54290000      -2.17390000       0.07130000
C       -1.17710000      -3.52710000       0.13790000
N        0.76360000      -2.06370000       0.10730000
O        1.02860000      -0.69570000       0.02620000
H        0.71010000       1.76900000      -0.86130000
H       -1.01610000       1.86500000      -0.42980000
H        0.23670000       1.89590000       0.83450000
H       -3.20590000      -1.52520000      -0.25510000
H       -3.01050000      -0.15080000       0.82780000
H       -2.61200000       0.04610000      -1.94360000
H       -1.81870000      -3.70770000      -0.73140000
H       -0.40390000      -4.29710000       0.16490000
H       -1.80140000      -3.63000000       1.03160000
