17
Properties=species:S:1:pos:R:3 gdb_75268=T pbc="F F F"
C        0.01250000       1.45600000       0.02260000
C       -0.02060000      -0.03230000      -0.04780000
N       -0.05550000      -0.71730000      -1.11990000
C       -0.03500000      -2.13930000      -0.75060000
C        0.04440000      -2.15350000       0.77520000
C        1.22960000      -1.52470000       1.43890000
C        2.43550000      -1.23340000       0.72150000
C        3.46660000      -1.00030000       0.14780000
N       -0.04110000      -0.74880000       1.20840000
H        0.93530000       1.78380000       0.51450000
H       -0.03360000       1.88210000      -0.97960000
H       -0.82240000       1.82710000       0.62520000
H       -0.94920000      -2.63100000      -1.10190000
H        0.81190000      -2.63480000      -1.23890000
H       -0.53600000      -2.87420000       1.34250000
H        1.37580000      -1.74320000       2.49370000
H        4.37310000      -0.79340000      -0.36540000
