16
Properties=species:S:1:pos:R:3 gdb_48938=T pbc="F F F"
O       -0.39650000       0.54680000      -0.73090000
C        0.13590000       1.08440000       0.21450000
C        1.29970000       1.97110000       0.10660000
N        1.77640000       2.86230000       1.17510000
C        2.56350000       3.62270000       0.08270000
C        3.94580000       3.01860000       0.16350000
C        3.87530000       1.76250000      -0.29300000
C        2.51440000       1.50840000      -0.82590000
C        1.81950000       2.81060000      -1.02930000
H       -0.22600000       0.92920000       1.25570000
H        0.98780000       3.46050000       1.41970000
H        2.46460000       4.70460000       0.13680000
H        4.76910000       3.47220000       0.69880000
H        4.64240000       1.00210000      -0.22470000
H        2.26140000       0.66030000      -1.44920000
H        1.33180000       3.14590000      -1.93680000
