14
Properties=species:S:1:pos:R:3 gdb_3720=T pbc="F F F"
C        0.08930000       1.56860000       0.10890000
C        0.01950000       0.04120000      -0.03390000
C        0.68800000      -0.44810000      -1.27940000
N        0.47780000      -0.01650000      -2.51330000
C        1.32010000      -0.78360000      -3.25850000
N        2.03970000      -1.66010000      -2.57880000
N        1.61910000      -1.42710000      -1.31050000
H        1.12520000       1.90820000       0.20110000
H       -0.34480000       2.04910000      -0.77060000
H       -0.45990000       1.89670000       0.99580000
H        0.47340000      -0.44740000       0.83600000
H       -1.03060000      -0.27480000      -0.05510000
H        1.40600000      -0.69300000      -4.33110000
H        2.00450000      -1.96270000      -0.54980000
