21
Properties=species:S:1:pos:R:3 gdb_77572=T pbc="F F F"
C       -0.46590000       1.55550000       0.41460000
C       -0.12290000       0.08110000       0.23860000
C        0.25720000      -0.45020000      -1.15280000
O       -0.64590000      -1.04100000      -2.02140000
C        1.58320000       0.08150000      -1.61450000
C        1.54250000      -1.05470000      -0.61530000
C        1.22870000      -0.54190000       0.79330000
C        2.23440000       0.37960000       1.47220000
O        0.98280000      -1.68420000       1.60370000
H        0.30090000       2.21390000      -0.00600000
H       -1.41250000       1.79300000      -0.08410000
H       -0.58210000       1.81750000       1.47220000
H       -0.92670000      -0.54740000       0.63350000
H       -0.95340000      -0.37100000      -2.64120000
H        1.85410000      -0.23230000      -2.61790000
H        1.94460000       1.07080000      -1.34500000
H        1.99080000      -2.02000000      -0.81420000
H        2.49730000       1.23980000       0.85120000
H        1.82980000       0.76880000       2.41520000
H        3.14950000      -0.17540000       1.69950000
H        0.66560000      -1.37550000       2.45970000
