17
Properties=species:S:1:pos:R:3 gdb_24108=T pbc="F F F"
C        0.00500000      -1.21320000      -0.00920000
C       -0.03220000      -0.01240000      -0.03560000
C       -0.02570000       1.44330000      -0.06340000
C        1.40730000       2.01240000       0.04740000
N        1.43100000       3.46190000       0.01860000
C        1.30280000       4.27030000      -1.09270000
C        1.31920000       5.55540000      -0.61920000
N        1.45040000       5.56520000       0.75000000
C        1.51060000       4.30000000       1.09500000
H        0.01830000      -2.27490000       0.01270000
H       -0.48500000       1.80620000      -0.99050000
H       -0.63110000       1.84330000       0.75870000
H        1.86290000       1.68140000       0.98390000
H        2.02250000       1.62540000      -0.76950000
H        1.22720000       3.85750000      -2.08560000
H        1.25230000       6.47220000      -1.18510000
H        1.62080000       3.91910000       2.10040000
