23
Properties=species:S:1:pos:R:3 gdb_102535=T pbc="F F F"
C        0.09710000       1.12910000       0.71550000
C       -0.01260000      -0.29450000       0.16660000
C        0.58180000      -0.45670000      -1.23770000
O        1.97780000      -0.15440000      -1.20530000
C        2.38150000       0.94670000      -1.99080000
C        0.38400000      -1.88550000      -1.79590000
C        0.89940000      -2.01270000      -3.24080000
C        1.09760000      -2.91240000      -0.93310000
O        0.57150000      -3.88180000      -0.44670000
H        1.14340000       1.44060000       0.77790000
H       -0.43490000       1.84580000       0.07930000
H       -0.33310000       1.19520000       1.71910000
H        0.49600000      -0.99020000       0.84520000
H       -1.06350000      -0.60720000       0.13410000
H        0.07340000       0.24050000      -1.92160000
H        1.89080000       1.87910000      -1.67700000
H        3.46060000       1.05770000      -1.85460000
H        2.17730000       0.79040000      -3.06000000
H       -0.68360000      -2.12770000      -1.76250000
H        0.39710000      -1.29070000      -3.89290000
H        1.97590000      -1.82400000      -3.28910000
H        0.70990000      -3.01420000      -3.63750000
H        2.18290000      -2.71470000      -0.79540000
