18
Properties=species:S:1:pos:R:3 gdb_41094=T pbc="F F F"
C       -0.00670000       1.44980000      -0.05390000
C        1.54070000       1.50990000       0.01410000
C        2.08770000       1.31780000       1.47430000
C        1.63060000      -0.15980000       1.36430000
C        0.12070000      -0.47300000       1.47870000
N       -0.08480000      -0.05780000       0.02650000
C        1.44140000      -0.04190000      -0.11930000
C        2.41870000      -1.22160000      -0.20750000
O        2.58960000      -1.23430000       1.25490000
H       -0.57030000       1.97150000       0.72710000
H       -0.37570000       1.76700000      -1.03360000
H        2.04810000       2.19920000      -0.66150000
H        3.17860000       1.37470000       1.50860000
H        1.66650000       1.94520000       2.26560000
H       -0.06770000      -1.54360000       1.59110000
H       -0.48670000       0.08050000       2.20270000
H        1.98310000      -2.15740000      -0.57510000
H        3.36700000      -1.03120000      -0.72180000
