16
Properties=species:S:1:pos:R:3 gdb_91312=T pbc="F F F"
O        0.47450000       0.90630000      -0.86480000
C        0.08860000      -0.15730000      -0.05260000
C        0.03140000      -0.02390000       1.50700000
C       -1.32860000      -0.76050000       1.49550000
O       -2.45230000       0.14920000       1.60000000
C       -2.54500000       0.26650000       0.16730000
C       -2.39510000       1.65340000      -0.29370000
N       -2.26060000       2.74860000      -0.64000000
C       -1.36800000      -0.71960000      -0.06110000
H       -0.05260000       1.68660000      -0.65590000
H        0.75320000      -0.98430000      -0.32130000
H        0.84970000      -0.50890000       2.04300000
H       -0.07590000       1.00130000       1.87050000
H       -1.46470000      -1.65290000       2.10670000
H       -3.50600000      -0.11420000      -0.19890000
H       -1.59150000      -1.56090000      -0.71450000
