15
Properties=species:S:1:pos:R:3 gdb_66531=T pbc="F F F"
C        0.03850000       1.51880000       0.04140000
C       -0.01470000       0.03750000      -0.07830000
C        0.82790000      -0.96670000      -0.78270000
C       -0.31220000      -2.01010000      -0.76750000
C       -0.30270000      -1.91000000       0.72390000
N        0.84080000      -0.90650000       0.72820000
C       -1.21070000      -0.96710000      -0.05130000
C       -2.61550000      -0.82720000      -0.07290000
N       -3.76680000      -0.69400000      -0.08820000
H        1.08120000       1.84750000       0.08530000
H       -0.44290000       1.99990000      -0.81620000
H       -0.46540000       1.85590000       0.95320000
H        1.72740000      -0.86450000      -1.37660000
H       -0.63220000      -2.79560000      -1.43640000
H       -0.53490000      -2.60670000       1.51880000
