16
Properties=species:S:1:pos:R:3 gdb_49536=T pbc="F F F"
O       -0.25490000      -0.04640000       0.20910000
C       -0.10170000       1.11210000      -0.08520000
C        1.18000000       1.89280000      -0.00430000
C        1.58690000       2.63410000       1.30880000
C        1.93610000       1.23040000       1.83830000
N        2.48130000       1.17010000       0.39130000
C        3.01900000       2.60430000       0.70830000
C        3.39290000       3.44690000      -0.40630000
C        3.73310000       4.16870000      -1.30590000
H       -0.95220000       1.72360000      -0.46880000
H        1.28380000       2.48610000      -0.91930000
H        1.08060000       3.46980000       1.80260000
H        2.72110000       1.16030000       2.59500000
H        1.13510000       0.51870000       2.01930000
H        3.82780000       2.55770000       1.44320000
H        4.03390000       4.79980000      -2.10580000
