19
Properties=species:S:1:pos:R:3 gdb_90982=T pbc="F F F"
C       -0.13800000       1.54920000      -0.00250000
C        0.00700000       0.02710000      -0.00720000
C        0.92500000      -0.54170000      -1.13230000
C        1.96980000      -1.27680000      -0.29860000
C        1.29340000      -1.96120000       0.91940000
O        2.47340000      -1.71580000       1.75680000
C        2.28350000      -0.47340000       0.99720000
C        0.74380000      -0.51730000       1.22290000
O        0.28500000      -0.16640000       2.48280000
H        0.84320000       2.03730000       0.01080000
H       -0.67280000       1.89750000      -0.89170000
H       -0.68530000       1.88810000       0.88230000
H       -0.99340000      -0.42410000      -0.06140000
H        0.39380000      -1.21240000      -1.81440000
H        1.36770000       0.25650000      -1.73730000
H        2.79650000      -1.80010000      -0.77510000
H        0.80250000      -2.93290000       0.99330000
H        2.98760000       0.34170000       1.16590000
H       -0.64580000      -0.40620000       2.54780000
