20
Properties=species:S:1:pos:R:3 gdb_66165=T pbc="F F F"
C       -0.57640000       1.39280000       0.09380000
C       -0.06340000      -0.03570000      -0.02230000
C       -1.16890000      -1.03150000      -0.40680000
N       -1.79510000      -0.76180000      -1.69190000
C       -3.02860000      -0.19930000      -1.81240000
O       -3.72250000       0.16780000      -0.88810000
C        1.24640000      -0.25090000      -0.82570000
O        1.85550000      -0.95930000       0.27000000
C        0.78170000      -0.58440000       1.15680000
H        0.22370000       2.07070000       0.40690000
H       -0.96500000       1.74920000      -0.86490000
H       -1.39230000       1.46140000       0.82030000
H       -0.75320000      -2.04570000      -0.42200000
H       -1.96710000      -1.00200000       0.34000000
H       -1.31860000      -1.03870000      -2.53500000
H       -3.33840000      -0.11300000      -2.87290000
H        1.18730000      -0.86800000      -1.73230000
H        1.78460000       0.67640000      -1.06590000
H        1.09420000       0.18030000       1.88060000
H        0.37600000      -1.44630000       1.70120000
