19
Properties=species:S:1:pos:R:3 gdb_57694=T pbc="F F F"
C        0.17470000       1.58450000       0.02520000
C        0.00720000       0.05870000      -0.00980000
O        0.64400000      -0.42160000       1.18200000
C       -1.47990000      -0.37940000      -0.03760000
C       -2.27550000       0.06870000       1.20510000
C       -3.60640000      -0.52310000       1.24910000
C       -4.69840000      -1.02560000       1.26220000
C        0.67780000      -0.49650000      -1.19600000
C        1.21500000      -0.98430000      -2.15460000
H        1.23540000       1.83910000      -0.01750000
H       -0.33500000       2.04870000      -0.82250000
H       -0.23660000       1.98410000       0.95510000
H        0.75240000      -1.37500000       1.09240000
H       -1.95300000       0.00160000      -0.94820000
H       -1.51160000      -1.47220000      -0.10520000
H       -1.70990000      -0.20920000       2.10160000
H       -2.36680000       1.16100000       1.22300000
H       -5.66510000      -1.46360000       1.28720000
H        1.69770000      -1.40500000      -3.00230000
