20
Properties=species:S:1:pos:R:3 gdb_89611=T pbc="F F F"
C       -0.15100000       1.55280000       0.05010000
C        0.14360000       0.06400000      -0.08600000
C        1.38560000      -0.39380000      -0.93140000
C        1.89670000      -1.19340000       0.27710000
C        2.09620000      -0.27330000       1.45920000
C        0.70660000      -0.69590000       1.12730000
C        2.46220000      -2.56780000       0.32590000
N        2.77880000      -3.11470000      -0.89140000
O        2.60230000      -3.18170000       1.36990000
H        0.71700000       2.10610000       0.42280000
H       -0.43070000       1.98630000      -0.91640000
H       -0.97930000       1.72560000       0.74580000
H       -0.74840000      -0.44950000      -0.45710000
H        1.09580000      -1.01260000      -1.78430000
H        2.04930000       0.40350000      -1.28460000
H        2.53020000      -0.76720000       2.32100000
H        2.43590000       0.74450000       1.28480000
H        0.12610000      -1.29580000       1.81760000
H        2.87020000      -2.53770000      -1.70970000
H        3.27930000      -3.98920000      -0.87660000
