15
Properties=species:S:1:pos:R:3 gdb_16637=T pbc="F F F"
O        0.07990000       1.39900000       0.20180000
C       -0.02650000       0.00020000       0.06830000
C       -1.44500000      -0.51550000      -0.05230000
C       -2.26280000      -0.10360000      -1.25680000
C       -1.48510000      -1.39630000      -1.28070000
N       -0.17000000      -1.34500000      -1.86790000
C        0.64350000      -0.43430000      -1.25380000
O        1.68250000       0.03230000      -1.67190000
H        0.92580000       1.63110000      -0.20900000
H        0.48080000      -0.51280000       0.90200000
H       -1.96830000      -0.81490000       0.84640000
H       -3.34080000      -0.16130000      -1.15450000
H       -1.90390000       0.71870000      -1.86630000
H       -1.97890000      -2.36030000      -1.28840000
H       -0.00950000      -1.56830000      -2.83970000
