16
Properties=species:S:1:pos:R:3 gdb_38813=T pbc="F F F"
C        0.09510000       1.53620000      -0.46220000
C        1.48030000       1.94800000      -0.00360000
O        1.62420000       1.93580000       1.41950000
C        2.14980000       0.83010000       0.67930000
C        1.22480000      -0.38050000       0.71870000
N        0.92270000      -0.79630000       2.09740000
C       -0.26530000      -0.40850000       2.30880000
O       -0.98760000       0.16430000       1.31550000
C       -0.13390000       0.13810000       0.14590000
H       -0.67690000       2.23800000      -0.13460000
H        0.05940000       1.48660000      -1.55600000
H        2.02570000       2.73140000      -0.52470000
H        3.22840000       0.70570000       0.71950000
H        1.65320000      -1.21100000       0.15000000
H       -0.79830000      -0.50140000       3.24850000
H       -0.60050000      -0.54430000      -0.56890000
