17
Properties=species:S:1:pos:R:3 gdb_112320=T pbc="F F F"
O        0.00650000       1.37140000      -0.09550000
C        0.03330000      -0.04620000      -0.04530000
C       -1.40680000      -0.52930000       0.07160000
C       -2.30930000      -0.13270000      -1.12310000
C       -3.27780000      -1.30470000      -1.31930000
O       -4.37750000      -1.26370000      -1.80680000
C       -2.63230000      -2.52350000      -0.70420000
O       -1.26250000      -2.66510000      -1.13370000
C       -1.51180000      -2.04870000       0.12800000
H        0.90120000       1.68650000      -0.25270000
H        0.48350000      -0.47650000      -0.95280000
H        0.61640000      -0.40570000       0.81860000
H       -1.83010000      -0.12150000       0.99800000
H       -2.86140000       0.79400000      -0.96610000
H       -1.71960000      -0.00820000      -2.03780000
H       -3.18940000      -3.43950000      -0.53750000
H       -1.17120000      -2.60540000       0.99790000
