16
Properties=species:S:1:pos:R:3 gdb_30047=T pbc="F F F"
C       -0.02400000       1.43330000       0.03130000
N        0.02700000      -0.02520000      -0.01180000
C        0.21540000      -0.70110000      -1.19010000
N        0.28790000      -1.98630000      -1.28970000
C        0.15670000      -2.71170000      -0.13620000
C       -0.04980000      -2.14760000       1.09370000
N       -0.25050000      -2.82000000       2.28000000
C       -0.10760000      -0.69430000       1.20450000
O       -0.25050000      -0.08770000       2.26120000
H        0.09510000       1.82220000      -0.98050000
H       -0.97900000       1.76180000       0.44730000
H        0.77120000       1.81670000       0.67450000
H        0.30640000      -0.07810000      -2.07490000
H        0.22090000      -3.79110000      -0.24660000
H        0.15590000      -3.73820000       2.36420000
H       -0.13630000      -2.22530000       3.08990000
