25
Properties=species:S:1:pos:R:3 gdb_66146=T pbc="F F F"
C        0.08130000       1.59180000       0.23580000
C       -0.02300000       0.08790000       0.05600000
C       -1.35140000      -0.42290000      -0.48450000
C       -1.67620000       0.03180000      -1.91680000
C       -2.96930000      -0.55620000      -2.44130000
C       -4.29070000       0.10630000      -2.13730000
C       -3.73780000       0.12790000      -3.54220000
C        1.22800000      -0.66030000      -0.34370000
C        0.69260000      -0.77910000       1.06490000
H        1.04730000       1.86970000       0.66930000
H       -0.01520000       2.12540000      -0.71610000
H       -0.70300000       1.96380000       0.90630000
H       -1.34510000      -1.52050000      -0.45860000
H       -2.16360000      -0.10860000       0.18550000
H       -1.74360000       1.12640000      -1.95580000
H       -0.84630000      -0.24720000      -2.58000000
H       -2.98660000      -1.64400000      -2.46330000
H       -5.15340000      -0.51780000      -1.93160000
H       -4.27220000       1.03400000      -1.57390000
H       -3.35110000       1.06930000      -3.91930000
H       -4.22130000      -0.48410000      -4.29590000
H        1.12580000      -1.51830000      -1.00060000
H        2.14080000      -0.09410000      -0.49750000
H        1.24260000      -0.29050000       1.86270000
H        0.22970000      -1.71610000       1.35720000
