16
Properties=species:S:1:pos:R:3 gdb_81901=T pbc="F F F"
C       -0.15260000       1.61130000       0.02890000
C        0.06170000       0.09560000      -0.02440000
C        0.83730000      -0.45690000      -1.21270000
C        2.27120000      -0.13520000      -1.37710000
N        1.86980000      -1.43980000      -0.77960000
C        1.92500000      -1.42280000       0.64240000
O        2.70180000      -2.03120000       1.31870000
C        0.82650000      -0.45230000       1.17790000
O        0.67010000      -0.17530000       2.33390000
H        0.79740000       2.14960000      -0.03750000
H       -0.79040000       1.94560000      -0.79390000
H       -0.62910000       1.88220000       0.97470000
H       -0.92000000      -0.39890000      -0.00060000
H        0.27570000      -0.76800000      -2.08820000
H        2.74640000      -0.22260000      -2.34850000
H        2.72380000       0.60070000      -0.71590000
