18
Properties=species:S:1:pos:R:3 gdb_12101=T pbc="F F F"
O        0.16070000       1.37720000      -0.09090000
C        0.01130000      -0.00420000       0.00550000
C       -0.43820000      -0.68130000       1.27620000
C       -1.34320000      -0.67450000       0.05130000
C       -2.61230000       0.12190000       0.03970000
O       -2.47480000       1.29940000       0.81940000
C       -3.45520000       0.16890000      -1.20500000
C       -3.94480000      -0.57780000       0.02780000
H       -0.63840000       1.77070000       0.28680000
H        0.78300000      -0.49980000      -0.57600000
H        0.02270000      -1.61530000       1.58020000
H       -0.73010000      -0.03050000       2.09330000
H       -1.43860000      -1.61030000      -0.49200000
H       -3.19440000       1.90050000       0.60480000
H       -3.94650000       1.10510000      -1.45570000
H       -3.13350000      -0.40080000      -2.07010000
H       -3.96540000      -1.66210000       0.00790000
H       -4.75040000      -0.12740000       0.59920000
