17
Properties=species:S:1:pos:R:3 gdb_124659=T pbc="F F F"
C        0.13580000       1.55510000      -0.10440000
C       -0.00230000       0.02780000       0.02790000
C        0.60830000      -0.64030000      -1.20560000
O       -0.01360000      -1.25760000      -2.02720000
C        0.66230000      -0.53680000       1.25200000
C        0.53200000      -1.77430000       1.85880000
C        1.44270000      -1.75060000       2.93400000
N        2.10050000      -0.59630000       3.00280000
N        1.61560000       0.11770000       1.96880000
H        1.17990000       1.85400000      -0.25520000
H       -0.43350000       1.91470000      -0.96510000
H       -0.24120000       2.05860000       0.79030000
H       -1.06090000      -0.24750000       0.03710000
H        1.71190000      -0.50450000      -1.28630000
H       -0.13230000      -2.56980000       1.56130000
H        1.64430000      -2.52390000       3.66060000
H        1.95400000       1.05420000       1.82880000
