20
Properties=species:S:1:pos:R:3 gdb_98473=T pbc="F F F"
C       -1.54250000       1.56380000      -0.09040000
N       -1.20170000       0.15870000      -0.17180000
C       -1.65320000      -0.75460000       0.72970000
O       -2.32310000      -0.47730000       1.71270000
C       -1.27880000      -2.18180000       0.39700000
C       -1.36270000      -3.19820000       1.51110000
C       -2.41160000      -3.18040000       0.43380000
O       -0.33940000      -2.35520000      -0.62880000
C        1.01310000      -2.23500000      -0.20480000
H       -2.01840000       1.72900000       0.87720000
H       -0.64740000       2.19020000      -0.16530000
H       -2.24210000       1.85880000      -0.88170000
H       -0.75930000      -0.20910000      -0.99930000
H       -0.63950000      -4.00520000       1.49220000
H       -1.62870000      -2.81470000       2.48830000
H       -3.39470000      -2.79900000       0.68180000
H       -2.37490000      -3.95700000      -0.32110000
H        1.63340000      -2.38650000      -1.09110000
H        1.22030000      -1.24240000       0.21630000
H        1.26750000      -2.99350000       0.54570000
