20
Properties=species:S:1:pos:R:3 gdb_23272=T pbc="F F F"
C        0.84870000       1.54760000      -0.25100000
C        0.17310000       0.19880000       0.05390000
C        0.26430000      -0.85030000      -1.09500000
C        1.20290000      -1.95540000      -0.61690000
C        2.58580000      -1.55690000      -0.19550000
C        1.50190000      -1.73280000       0.85750000
C        0.76730000      -0.51230000       1.26270000
N        0.61860000      -0.21990000       2.49540000
O       -0.17890000       0.93590000       2.65420000
H        1.91050000       1.43050000      -0.48950000
H        0.36650000       2.02530000      -1.11020000
H        0.76410000       2.21590000       0.60850000
H       -0.87510000       0.41260000       0.28700000
H       -0.72440000      -1.27710000      -1.29250000
H        0.60660000      -0.39450000      -2.03080000
H        1.05160000      -2.95910000      -0.99770000
H        3.35500000      -2.32130000      -0.21260000
H        2.94840000      -0.55990000      -0.42000000
H        1.59980000      -2.53870000       1.57360000
H       -0.22860000       1.01170000       3.61270000
