20
Properties=species:S:1:pos:R:3 gdb_84498=T pbc="F F F"
C       -0.04160000       1.60380000      -0.00440000
C        0.04700000       0.07510000      -0.01050000
C        0.83110000      -0.50640000      -1.17030000
C        1.59880000      -1.52700000      -0.79170000
C        1.47080000      -1.78140000       0.66760000
C        1.27150000      -3.16930000       1.18340000
N        2.50410000      -2.43150000       1.47840000
C        0.76490000      -0.54330000       1.23610000
O        1.77430000       0.30720000       1.75730000
H        0.95440000       2.05160000       0.04190000
H       -0.53420000       1.96330000      -0.91350000
H       -0.62750000       1.96970000       0.84740000
H       -0.97780000      -0.32570000      -0.04440000
H        0.72700000      -0.13770000      -2.18500000
H        2.21960000      -2.13940000      -1.43760000
H        0.62670000      -3.34300000       2.04160000
H        1.29410000      -3.98360000       0.46230000
H        3.26840000      -2.74820000       0.88650000
H        0.04650000      -0.80910000       2.02340000
H        1.34020000       1.05410000       2.18050000
