18
Properties=species:S:1:pos:R:3 gdb_34943=T pbc="F F F"
C       -0.02380000      -1.18870000      -0.04650000
C        0.02850000       0.01030000       0.02230000
C        0.04820000       1.46410000       0.08190000
C       -0.39300000       2.10040000       1.42670000
C        0.66140000       1.48730000       2.38260000
C        1.62530000       2.33750000       1.55870000
C        0.52120000       3.40650000       1.33860000
C        1.04290000       3.52350000      -0.08680000
N        1.43650000       2.06220000       0.02610000
H       -0.05820000      -2.24800000      -0.11090000
H       -0.52880000       1.84700000      -0.76560000
H       -1.45470000       2.13230000       1.66510000
H        0.58530000       1.89790000       3.39350000
H        0.76670000       0.40150000       2.41780000
H        2.66310000       2.54300000       1.81330000
H        0.30520000       4.23030000       2.01990000
H        0.37850000       3.76150000      -0.92380000
H        1.94290000       4.14190000      -0.14730000
