15
Properties=species:S:1:pos:R:3 gdb_52070=T pbc="F F F"
O        0.16140000       0.37910000       0.79170000
C        0.34160000       1.54430000       0.61650000
O        0.75280000       2.03940000      -0.57580000
C        0.98180000       3.44560000      -0.65050000
C        2.39160000       3.80150000      -0.21780000
C        2.61120000       5.06490000       0.51810000
O        2.56710000       3.82440000       1.21320000
C        3.46450000       3.21390000      -0.98070000
C        4.33880000       2.72490000      -1.64310000
H        0.18870000       2.33050000       1.37820000
H        0.81840000       3.72180000      -1.69460000
H        0.26710000       3.98820000      -0.02090000
H        3.58870000       5.53820000       0.46090000
H        1.76960000       5.73530000       0.69010000
H        5.11440000       2.28260000      -2.21910000
