16
Properties=species:S:1:pos:R:3 gdb_68435=T pbc="F F F"
O       -0.09850000       1.39730000      -0.00990000
C       -0.04340000       0.01960000       0.03190000
C        0.36310000      -0.84080000       1.27940000
C       -0.37790000      -1.91300000       0.45190000
C       -1.35680000      -0.80680000      -0.00330000
O        0.48910000      -2.09320000      -0.69860000
C        0.77830000      -0.73610000      -1.06080000
C        0.36160000      -0.44010000      -2.43590000
N        0.04540000      -0.18940000      -3.51850000
H        0.79230000       1.75890000       0.06110000
H        1.42260000      -1.00940000       1.48720000
H       -0.17580000      -0.52680000       2.17400000
H       -0.67960000      -2.88550000       0.82970000
H       -2.04880000      -0.49450000       0.77920000
H       -1.86560000      -0.93490000      -0.95990000
H        1.85550000      -0.54040000      -0.97510000
