14
Properties=species:S:1:pos:R:3 gdb_5002=T pbc="F F F"
N        0.01050000       1.39000000       0.13180000
C       -0.06400000       0.01790000       0.04450000
C       -1.21180000      -0.73130000       0.01990000
C       -1.15850000      -2.15350000      -0.01150000
C        0.04620000      -2.77680000      -0.02080000
N        1.19360000      -2.02040000      -0.00680000
C        1.24770000      -0.63810000       0.01470000
O        2.31400000      -0.02750000      -0.00070000
H        0.93130000       1.74360000      -0.09310000
H       -0.76140000       1.92440000      -0.23280000
H       -2.17770000      -0.23480000       0.03110000
H       -2.06950000      -2.73700000      -0.02450000
H        0.18160000      -3.84950000      -0.03980000
H        2.09880000      -2.46830000      -0.03060000
