18
Properties=species:S:1:pos:R:3 gdb_108355=T pbc="F F F"
O       -0.00070000       1.38580000      -0.25860000
C        0.04850000      -0.00320000       0.00780000
C       -1.35060000      -0.55460000       0.13450000
C       -2.15000000      -0.43610000       1.44180000
O       -2.58420000      -1.82190000       1.33010000
C       -1.77200000      -2.02660000       0.15200000
C       -2.47570000      -1.78890000      -1.19480000
C       -3.48820000      -0.72710000      -1.08870000
N       -2.07740000      -0.30960000      -1.18920000
H       -0.57490000       1.47660000      -1.03110000
H        0.58380000      -0.54920000      -0.78570000
H        0.60540000      -0.13500000       0.94110000
H       -1.52040000      -0.28800000       2.32770000
H       -2.98770000       0.26880000       1.47230000
H       -1.09890000      -2.88280000       0.23000000
H       -2.34620000      -2.40360000      -2.07990000
H       -4.04520000      -0.48150000      -1.98760000
H       -4.04130000      -0.60700000      -0.16400000
