16
Properties=species:S:1:pos:R:3 gdb_84412=T pbc="F F F"
C       -0.05920000       1.56140000      -0.00510000
C        0.03780000       0.03430000       0.00650000
N        0.81150000      -0.47750000      -1.13700000
C        1.76570000      -1.17050000      -0.66940000
N        1.82130000      -1.26480000       0.73870000
C        2.78630000      -1.96600000       1.43790000
O        3.68230000      -2.57980000       0.91390000
C        0.73280000      -0.50790000       1.25620000
N        0.37340000      -0.28910000       2.44750000
H        0.93760000       2.01160000       0.01140000
H       -0.57440000       1.89600000      -0.90820000
H       -0.60940000       1.89950000       0.87590000
H       -0.97380000      -0.38610000      -0.04780000
H        2.52470000      -1.68690000      -1.24340000
H        2.64570000      -1.90330000       2.53120000
H        0.96550000      -0.73420000       3.14830000
