21
Properties=species:S:1:pos:R:3 gdb_57263=T pbc="F F F"
C        0.21900000       1.42990000       0.24970000
C       -0.00230000      -0.07090000       0.00390000
O        0.53500000      -0.72050000       1.16450000
C       -1.44030000      -0.37220000      -0.09420000
C       -2.60800000      -0.65400000      -0.15440000
C        0.72150000      -0.54280000      -1.28110000
C        0.21800000       0.06960000      -2.57620000
C        2.19570000      -0.83730000      -1.16840000
C        1.20900000      -1.96920000      -1.33960000
H        1.29140000       1.62320000       0.33710000
H       -0.18710000       2.03170000      -0.56500000
H       -0.27020000       1.72260000       1.18090000
H        0.09200000      -1.56990000       1.25670000
H       -3.64160000      -0.89300000      -0.20760000
H        0.37850000       1.15240000      -2.60670000
H        0.74710000      -0.36200000      -3.43100000
H       -0.85160000      -0.11810000      -2.71350000
H        2.83060000      -0.56920000      -2.00620000
H        2.65560000      -0.73860000      -0.19260000
H        1.05120000      -2.61660000      -0.48470000
H        1.15610000      -2.47850000      -2.29570000
