21
Properties=species:S:1:pos:R:3 gdb_89152=T pbc="F F F"
C        0.37020000       1.60240000       0.02900000
C        0.09030000       0.10800000       0.02860000
C        0.87410000      -0.80450000      -0.97640000
C        1.29470000      -1.73760000       0.19810000
O        0.91370000      -3.07940000       0.13840000
C        2.62250000      -1.38540000       0.90920000
C        3.86820000      -0.94280000       0.17370000
O        1.96030000      -0.30810000       1.63000000
C        0.65040000      -0.73870000       1.19670000
H        1.42890000       1.79290000       0.22380000
H        0.10590000       2.05160000      -0.93430000
H       -0.20900000       2.11240000       0.80660000
H       -0.98520000      -0.07910000      -0.06520000
H        0.23550000      -1.31030000      -1.70520000
H        1.69350000      -0.31630000      -1.50970000
H        1.15950000      -3.42750000      -0.72520000
H        2.86710000      -2.20130000       1.60640000
H        3.66080000      -0.13470000      -0.53300000
H        4.61640000      -0.58150000       0.88650000
H        4.30640000      -1.78530000      -0.37320000
H       -0.00050000      -1.01480000       2.03050000
