19
Properties=species:S:1:pos:R:3 gdb_87740=T pbc="F F F"
C        0.23030000       1.46910000      -0.36570000
C        0.07850000       0.00350000      -0.02640000
C        1.29910000      -0.90800000       0.07740000
C        0.51610000      -0.54180000       1.29420000
C        0.94220000       0.17710000       2.56740000
C        0.04420000      -0.87740000       3.27530000
O       -0.26560000      -1.51040000       2.00360000
C        0.68680000      -1.76980000       4.22410000
C        1.22300000      -2.49500000       5.01870000
H        1.12550000       1.89350000       0.10170000
H        0.32480000       1.61690000      -1.44710000
H       -0.63180000       2.05220000      -0.02290000
H       -0.81030000      -0.47700000      -0.42870000
H        1.20420000      -1.92640000      -0.28400000
H        2.28390000      -0.46760000      -0.05230000
H        2.00090000       0.10390000       2.81750000
H        0.60550000       1.20990000       2.67260000
H       -0.86510000      -0.45340000       3.71890000
H        1.69330000      -3.14170000       5.71770000
