14
Properties=species:S:1:pos:R:3 gdb_3629=T pbc="F F F"
C       -0.00400000       1.48760000       0.06600000
C        1.46880000       1.83360000      -0.05010000
C        2.27420000       0.70670000       0.55650000
C        2.12980000       0.81310000      -0.94890000
C        1.12890000      -0.37880000      -0.92260000
C        1.26970000      -0.48250000       0.55490000
N        0.01940000       0.02220000      -0.03960000
H       -0.44020000       1.78170000       1.02610000
H       -0.60910000       1.90650000      -0.74450000
H        1.84190000       2.84970000      -0.01390000
H        3.14840000       0.82490000       1.17960000
H        2.87190000       1.02870000      -1.70350000
H        0.96460000      -1.12220000      -1.69180000
H        1.24320000      -1.32720000       1.23090000
