16
Properties=species:S:1:pos:R:3 gdb_50631=T pbc="F F F"
N       -0.25210000       1.34670000      -0.24600000
C       -0.10610000       0.09360000      -0.20140000
C       -1.28350000      -0.85230000      -0.26150000
C       -0.90270000      -2.16670000      -0.94560000
O        0.30800000      -2.66700000      -0.39400000
C        1.34700000      -1.76250000      -0.59250000
O        1.11740000      -0.49420000       0.01570000
C       -1.94790000      -3.26120000      -0.79470000
O       -3.12900000      -3.05080000      -0.73350000
H        0.65390000       1.81030000      -0.14730000
H       -1.59030000      -1.07610000       0.76690000
H       -2.12080000      -0.36480000      -0.75930000
H       -0.76760000      -2.00130000      -2.03190000
H        2.24000000      -2.17080000      -0.11820000
H        1.51830000      -1.60620000      -1.67100000
H       -1.51550000      -4.28450000      -0.75790000
