13
Properties=species:S:1:pos:R:3 gdb_717=T pbc="F F F"
C       -0.00140000       1.45450000       0.11430000
C        1.51040000       1.39480000      -0.01100000
C        1.92790000       0.08650000       0.69530000
C        0.63330000      -0.53470000       1.18830000
N       -0.04840000      -0.05050000      -0.07880000
C        1.36760000       0.06830000      -0.69560000
H       -0.46230000       1.80970000       1.04350000
H       -0.47620000       1.94110000      -0.74170000
H        2.23000000       2.17940000      -0.20970000
H        2.95070000      -0.07960000       1.00990000
H        0.66240000      -1.62750000       1.18500000
H        0.17270000      -0.18040000       2.11790000
H        1.68500000      -0.34200000      -1.64320000
