19
Properties=species:S:1:pos:R:3 gdb_83557=T pbc="F F F"
N       -0.16290000      -1.20670000      -0.18520000
C       -0.08300000      -0.05690000      -0.08980000
C        0.01860000       1.38450000       0.03110000
C       -0.03430000       2.06750000       1.43700000
C        1.03470000       1.28170000       2.23760000
C        2.16810000       1.29200000       1.16360000
C        1.41870000       2.08060000       0.06020000
N        0.70050000       3.18140000       0.76800000
C        1.43800000       4.15430000       1.55560000
H       -0.64850000       1.88780000      -0.66810000
H       -0.98450000       2.30190000       1.91740000
H        1.31040000       1.79520000       3.16130000
H        0.70000000       0.27530000       2.49780000
H        3.07070000       1.81110000       1.49330000
H        2.45560000       0.29120000       0.83430000
H        1.94720000       2.32850000      -0.86060000
H        2.00570000       4.79820000       0.87620000
H        0.72300000       4.78680000       2.09150000
H        2.14070000       3.73720000       2.29330000
