16
Properties=species:S:1:pos:R:3 gdb_25994=T pbc="F F F"
C        1.42640000      -0.46000000       0.12760000
C        0.02990000       0.10090000       0.10560000
N       -0.13510000       1.36680000       0.16770000
N       -1.01340000      -0.81280000       0.01720000
C       -1.01550000      -2.19450000      -0.05600000
C       -0.04930000      -3.15600000      -0.07090000
O       -0.68910000      -4.37470000      -0.15940000
C       -1.99320000      -4.07260000      -0.19220000
N       -2.26120000      -2.80860000      -0.13520000
H        2.12430000       0.37240000       0.19800000
H        1.57120000      -1.12570000       0.98490000
H        1.63690000      -1.03130000      -0.78270000
H       -1.12560000       1.62110000       0.14430000
H       -1.94690000      -0.42780000       0.00390000
H        1.02130000      -3.18480000      -0.03250000
H       -2.68890000      -4.89390000      -0.26180000
