20
Properties=species:S:1:pos:R:3 gdb_85362=T pbc="F F F"
C       -0.11840000       1.54630000      -0.11820000
C        0.01160000       0.01990000       0.01670000
N        0.69900000      -0.56620000      -1.13780000
C        2.06750000      -0.54500000      -1.29080000
O        2.60770000      -0.74080000      -2.36660000
C        2.83040000      -0.31540000      -0.03740000
C        2.22840000      -0.28030000       1.15270000
C        0.73530000      -0.45340000       1.29850000
C        0.19650000       0.19520000       2.58010000
H        0.86050000       2.03290000      -0.07610000
H       -0.57620000       1.79430000      -1.08080000
H       -0.75090000       1.96720000       0.66860000
H       -0.99810000      -0.40690000       0.03380000
H        0.20200000      -0.58400000      -2.01770000
H        3.90340000      -0.22550000      -0.16040000
H        2.81110000      -0.15770000       2.06340000
H        0.54860000      -1.53610000       1.37300000
H        0.41670000       1.26590000       2.61850000
H       -0.88770000       0.06810000       2.66220000
H        0.65390000      -0.26880000       3.45960000
