20
Properties=species:S:1:pos:R:3 gdb_121661=T pbc="F F F"
O       -0.04950000       1.49790000      -0.03270000
C        0.00620000       0.10010000      -0.26500000
C       -1.33910000      -0.49060000       0.13480000
C       -1.39520000      -2.00270000      -0.06640000
C       -2.73700000      -2.62040000       0.28210000
O       -3.71030000      -1.95830000       0.58090000
C       -2.81820000      -4.11650000       0.23950000
C       -3.45280000      -4.77620000       1.42780000
N       -4.15690000      -4.71770000       0.15550000
H        0.79560000       1.88040000      -0.28550000
H        0.21060000      -0.12130000      -1.32630000
H        0.81240000      -0.37050000       0.32310000
H       -1.53910000      -0.24550000       1.18290000
H       -2.13080000      -0.00920000      -0.44690000
H       -1.17790000      -2.27250000      -1.11130000
H       -0.62320000      -2.51910000       0.52270000
H       -2.03180000      -4.64010000      -0.29650000
H       -3.10380000      -5.76030000       1.72740000
H       -3.77660000      -4.12240000       2.23280000
H       -4.82190000      -3.94350000       0.19250000
