21
Properties=species:S:1:pos:R:3 gdb_114688=T pbc="F F F"
C       -0.35170000       1.41130000       0.20900000
C        0.11690000      -0.00510000      -0.02310000
C       -0.58380000      -1.16580000       0.66840000
C        0.84540000      -0.81710000       1.00560000
O        1.86980000      -1.57670000       0.42190000
C        1.86420000      -1.40630000      -1.01190000
C        1.62420000      -2.77310000      -1.65080000
O        2.53890000      -3.73150000      -1.16700000
C        0.79350000      -0.34100000      -1.35190000
H        0.45990000       2.12980000       0.04550000
H       -1.17220000       1.67530000      -0.46860000
H       -0.71660000       1.54550000       1.23210000
H       -1.34710000      -0.91520000       1.39880000
H       -0.77350000      -2.08030000       0.11670000
H        1.11290000      -0.44330000       1.98840000
H        2.87130000      -1.07260000      -1.29020000
H        0.58010000      -3.08390000      -1.47460000
H        1.76700000      -2.70300000      -2.73540000
H        2.52660000      -3.63500000      -0.20630000
H        0.08460000      -0.71310000      -2.10080000
H        1.25930000       0.55830000      -1.76560000
