19
Properties=species:S:1:pos:R:3 gdb_81290=T pbc="F F F"
C       -0.11930000       1.50370000       0.01870000
C        0.01950000      -0.01310000      -0.03190000
C        0.88530000      -0.58450000      -1.19350000
C        2.12850000      -0.44360000      -0.27750000
C        1.12490000      -0.61260000       0.90070000
C        0.84470000      -2.08990000       1.07530000
O        0.83950000      -2.67890000       2.11960000
O        0.58110000      -2.76400000      -0.08100000
C        0.56610000      -2.06560000      -1.34410000
H        0.84320000       2.01550000      -0.07790000
H       -0.76570000       1.85750000      -0.79180000
H       -0.56930000       1.81930000       0.96560000
H       -0.97020000      -0.47180000       0.07270000
H        0.87000000      -0.08550000      -2.16620000
H        2.92500000      -1.18560000      -0.37820000
H        2.56440000       0.55550000      -0.30260000
H        1.32700000      -0.15740000       1.86940000
H       -0.43130000      -2.21190000      -1.77490000
H        1.29700000      -2.56600000      -1.98950000
