17
Properties=species:S:1:pos:R:3 gdb_49074=T pbc="F F F"
O       -0.80050000       1.36130000       0.63840000
C        0.15370000       0.97570000       0.01130000
C        1.43950000       1.75450000      -0.12970000
C        1.92410000       2.45500000       1.14490000
O        2.67580000       3.57830000       0.70320000
C        1.98520000       4.10560000      -0.42020000
C        1.51220000       2.88550000      -1.21160000
C        2.61310000       1.99920000      -1.82910000
O        2.46120000       0.99510000      -0.80050000
H        0.16110000       0.00710000      -0.53510000
H        1.04770000       2.76090000       1.73500000
H        2.57750000       1.82000000       1.74670000
H        1.11990000       4.71070000      -0.10640000
H        2.67950000       4.74530000      -0.97260000
H        0.63040000       3.06540000      -1.82590000
H        2.39280000       1.59420000      -2.82310000
H        3.61800000       2.43640000      -1.82490000
