17
Properties=species:S:1:pos:R:3 gdb_126704=T pbc="F F F"
C       -0.01850000       1.57290000       0.04800000
C       -0.03600000       0.04530000      -0.02270000
N       -1.38420000      -0.50620000      -0.05170000
C       -2.11430000      -0.75940000       1.10300000
O       -1.77990000      -0.60950000       2.24680000
O       -3.31980000      -1.22880000       0.67090000
N       -3.34470000      -1.26340000      -0.74840000
C       -2.18470000      -0.82620000      -1.11990000
C       -1.78460000      -0.70860000      -2.54760000
H        1.01370000       1.93260000       0.08990000
H       -0.50140000       2.02060000      -0.82600000
H       -0.53860000       1.91550000       0.94620000
H        0.49940000      -0.31720000      -0.90460000
H        0.44870000      -0.37770000       0.86130000
H       -2.61880000      -1.02900000      -3.17300000
H       -1.52420000       0.32330000      -2.80330000
H       -0.91680000      -1.33940000      -2.76670000
