18
Properties=species:S:1:pos:R:3 gdb_52523=T pbc="F F F"
C       -0.29420000       1.26640000       0.88060000
C       -0.09330000      -0.06810000       0.34410000
C        0.06880000      -1.17550000      -0.10880000
C        0.23950000      -2.49830000      -0.66250000
O       -0.54520000      -2.95470000      -1.47710000
C        1.42360000      -3.30160000      -0.18700000
C        2.59580000      -2.57980000       0.43670000
C        1.05400000      -4.68970000       0.25580000
N        1.73310000      -4.47670000      -1.01700000
H        0.46880000       1.95350000       0.49850000
H       -1.27600000       1.66360000       0.60380000
H       -0.22080000       1.26500000       1.97340000
H        2.29410000      -2.03740000       1.33700000
H        3.37010000      -3.30220000       0.70420000
H        3.03360000      -1.85970000      -0.26220000
H        1.65140000      -5.15550000       1.03530000
H        0.00120000      -4.95670000       0.24540000
H        1.03380000      -4.50920000      -1.76050000
