17
Properties=species:S:1:pos:R:3 gdb_124067=T pbc="F F F"
C        0.03480000       1.52340000       0.02600000
O        1.21090000       1.40640000       0.85850000
C        1.39840000       0.03950000       0.42700000
C       -0.05830000      -0.02110000      -0.10830000
C       -1.02940000      -0.66240000       0.82050000
C       -2.01160000      -1.61540000       0.63240000
C       -2.58760000      -1.80010000       1.90850000
N       -2.01730000      -1.02790000       2.82780000
N       -1.07580000      -0.34740000       2.14430000
H       -0.78830000       2.03250000       0.53590000
H        0.25790000       2.03550000      -0.91950000
H        2.16080000      -0.03530000      -0.35990000
H        1.65610000      -0.62770000       1.25480000
H       -0.18870000      -0.41350000      -1.11700000
H       -2.26900000      -2.10230000      -0.29450000
H       -3.39210000      -2.46270000       2.19220000
H       -0.49190000       0.31890000       2.62470000
