20
Properties=species:S:1:pos:R:3 gdb_102604=T pbc="F F F"
C       -0.10530000       1.41400000      -0.38780000
C       -0.24550000      -0.02250000       0.02710000
N       -0.58520000      -0.34930000       1.20290000
O        0.05810000      -0.83490000      -1.03070000
C       -0.10470000      -2.25500000      -0.92940000
C       -1.57960000      -2.66750000      -1.06930000
O       -2.19260000      -2.19300000      -2.24430000
C        0.78610000      -2.82230000      -2.03600000
O        0.39870000      -2.35890000      -3.32570000
H        0.90740000       1.60570000      -0.75600000
H       -0.79810000       1.63680000      -1.20530000
H       -0.31750000       2.06150000       0.46140000
H       -0.64190000      -1.35650000       1.34380000
H        0.27990000      -2.61690000       0.03530000
H       -1.61800000      -3.76870000      -0.99010000
H       -2.15680000      -2.26440000      -0.23140000
H       -1.58910000      -2.38870000      -2.97460000
H        1.83340000      -2.56420000      -1.82770000
H        0.70100000      -3.91280000      -2.05710000
H        0.44380000      -1.39530000      -3.28840000
