18
Properties=species:S:1:pos:R:3 gdb_124685=T pbc="F F F"
C       -0.00600000       1.57100000      -0.01750000
C        0.00070000       0.03180000       0.01550000
C        0.72230000      -0.50130000       1.26450000
O        2.07000000      -0.06560000       1.19550000
C       -1.38000000      -0.53560000      -0.06840000
C       -2.01660000      -1.33360000      -0.96970000
C       -3.32020000      -1.48050000      -0.42680000
N       -3.46480000      -0.83360000       0.70260000
O       -2.22910000      -0.23020000       0.93380000
H        1.01620000       1.94320000       0.07140000
H       -0.43820000       1.93990000      -0.95170000
H       -0.59790000       1.97070000       0.81130000
H        0.55260000      -0.34010000      -0.85510000
H        0.21760000      -0.12230000       2.16540000
H        0.65730000      -1.60000000       1.28250000
H        2.50950000      -0.31240000       2.01410000
H       -1.61750000      -1.75010000      -1.87930000
H       -4.15930000      -2.03650000      -0.82110000
