15
Properties=species:S:1:pos:R:3 gdb_42158=T pbc="F F F"
O       -0.03580000      -0.03850000       0.21080000
C       -0.02100000       1.17330000       0.22600000
C        1.19930000       1.94730000       0.21720000
C        2.23270000       2.56410000       0.20860000
C       -1.33170000       1.99730000       0.25620000
O       -1.27340000       3.20790000       0.27070000
C       -2.58260000       1.21360000       0.26520000
C       -3.76220000       1.80460000       1.03340000
C       -3.78470000       1.82350000      -0.45150000
H        3.14310000       3.11330000       0.20120000
H       -2.46490000       0.13920000       0.24980000
H       -4.39410000       1.10190000       1.56380000
H       -3.56580000       2.74030000       1.54440000
H       -3.60340000       2.77210000      -0.94400000
H       -4.43280000       1.13460000      -0.98030000
