27
Properties=species:S:1:pos:R:3 gdb_117843=T pbc="F F F"
C        0.54540000       1.35100000       0.60450000
C        0.43590000      -0.11970000       0.19100000
C       -1.00230000      -0.64750000       0.27540000
C       -1.16900000      -2.17810000       0.11890000
O       -0.38240000      -2.85720000       1.10980000
C       -2.65840000      -2.57960000       0.25580000
C       -3.32290000      -2.25000000       1.59790000
C       -0.60400000      -2.65410000      -1.23590000
C       -0.66920000      -4.16540000      -1.48450000
H        1.57670000       1.71020000       0.52920000
H       -0.07640000       1.99170000      -0.03140000
H        0.21670000       1.49940000       1.63960000
H        0.82040000      -0.23240000      -0.82890000
H        1.07470000      -0.73820000       0.83130000
H       -1.41330000      -0.35820000       1.25240000
H       -1.62970000      -0.14350000      -0.47220000
H       -0.67730000      -2.56230000       1.97710000
H       -3.22280000      -2.10300000      -0.55580000
H       -2.73070000      -3.65930000       0.09550000
H       -4.34540000      -2.63910000       1.61910000
H       -2.79260000      -2.71590000       2.43690000
H       -3.38040000      -1.17450000       1.78850000
H       -1.12780000      -2.11650000      -2.03600000
H        0.44400000      -2.34440000      -1.28460000
H       -0.10740000      -4.42450000      -2.38740000
H       -0.23270000      -4.70970000      -0.64340000
H       -1.69330000      -4.52290000      -1.62730000
