19
Properties=species:S:1:pos:R:3 gdb_40976=T pbc="F F F"
C        0.00420000       1.49810000       0.26670000
O        1.25580000       1.92680000      -0.25750000
C        2.01640000       0.80720000      -0.75360000
C        2.36920000       1.05560000      -2.25380000
C        3.79400000       1.54410000      -2.22110000
C        4.34980000       1.39000000      -1.02110000
C        3.39920000       0.77010000      -0.03040000
C        1.12420000      -0.37540000      -0.49230000
C       -0.00910000       0.00770000       0.08170000
H       -0.08140000       1.79020000       1.32550000
H       -0.81980000       1.99480000      -0.27010000
H        2.27580000       0.13520000      -2.84660000
H        1.66420000       1.77940000      -2.67500000
H        4.29050000       1.95140000      -3.09490000
H        5.37020000       1.65210000      -0.76400000
H        3.32680000       1.31860000       0.91440000
H        3.69550000      -0.25830000       0.21830000
H        1.41350000      -1.38520000      -0.75580000
H       -0.83550000      -0.62330000       0.38330000
