19
Properties=species:S:1:pos:R:3 gdb_30273=T pbc="F F F"
C       -0.02620000       1.59410000      -0.01090000
C        0.01730000       0.06520000       0.06390000
C        0.72680000      -0.60360000      -1.16750000
C        1.55340000      -1.84000000      -0.66260000
C        1.65140000      -1.50750000       0.78830000
C        0.83140000      -0.49950000       1.19330000
N        0.91720000      -0.28770000       2.54760000
C        1.79840000      -1.17760000       2.95530000
N        2.27530000      -1.95770000       1.92640000
H        0.98510000       2.00800000      -0.08920000
H       -0.60170000       1.93210000      -0.87970000
H       -0.48910000       2.01170000       0.88800000
H       -1.01780000      -0.30060000       0.13250000
H        0.01860000      -0.88130000      -1.95250000
H        1.41980000       0.12430000      -1.60260000
H        1.01720000      -2.78320000      -0.83650000
H        2.51440000      -1.92370000      -1.18290000
H        2.14270000      -1.30810000       3.97080000
H        2.96300000      -2.68740000       2.00730000
