18
Properties=species:S:1:pos:R:3 gdb_111231=T pbc="F F F"
O       -0.13000000       1.38750000      -0.23910000
C       -0.03660000       0.03240000       0.18060000
C       -1.42580000      -0.56970000       0.08370000
C       -2.00090000      -0.68130000      -1.35490000
C       -1.30730000      -2.05940000      -1.47320000
C       -1.50960000      -2.13300000       0.07150000
N       -2.90280000      -2.51850000       0.33560000
C       -3.73550000      -1.85760000      -0.35680000
O       -3.42870000      -0.88940000      -1.25530000
H        0.73190000       1.79940000      -0.12760000
H        0.68520000      -0.52270000      -0.43770000
H        0.30970000      -0.04150000       1.22360000
H       -2.08650000      -0.07490000       0.80020000
H       -1.84790000       0.11210000      -2.08310000
H       -1.79860000      -2.82410000      -2.07720000
H       -0.26220000      -1.96210000      -1.76780000
H       -0.82750000      -2.72050000       0.68700000
H       -4.80860000      -2.01610000      -0.29000000
