19
Properties=species:S:1:pos:R:3 gdb_97613=T pbc="F F F"
C        0.17690000       1.48080000      -0.35620000
C       -0.04510000       0.14540000       0.37770000
C       -1.41950000      -0.33550000       0.28400000
C       -2.56350000      -0.70120000       0.18050000
C       -3.93350000      -1.20370000       0.08720000
O       -4.01490000      -2.41400000      -0.66620000
C       -4.55780000      -1.38280000       1.49210000
C       -6.00680000      -1.82200000       1.42880000
O       -6.87850000      -1.37150000       2.12810000
H        1.21900000       1.79870000      -0.25840000
H       -0.05680000       1.38290000      -1.41950000
H       -0.46300000       2.26340000       0.05990000
H        0.62990000      -0.61640000      -0.03300000
H        0.23110000       0.25430000       1.43420000
H       -4.54320000      -0.48570000      -0.47610000
H       -3.28050000      -2.97350000      -0.38990000
H       -3.98770000      -2.16200000       2.01760000
H       -4.48660000      -0.46300000       2.07850000
H       -6.21550000      -2.61330000       0.67830000
