12
Properties=species:S:1:pos:R:3 gdb_23935=T pbc="F F F"
N        0.12690000      -3.69500000      -0.01940000
C        0.07600000      -2.53300000      -0.01220000
C        0.01450000      -1.17320000      -0.00370000
C       -0.04610000       0.03810000       0.00380000
C       -0.13060000       1.43200000       0.01250000
C       -1.20190000       2.29080000       0.03210000
C       -0.66330000       3.60650000       0.03170000
C        0.69210000       3.45720000       0.01200000
O        1.03740000       2.15280000       0.00010000
H       -2.24020000       2.00070000       0.04510000
H       -1.20740000       4.53710000       0.04430000
H        1.51250000       4.15610000       0.00430000
