20
Properties=species:S:1:pos:R:3 gdb_6537=T pbc="F F F"
C       -0.04610000       1.56220000      -0.26720000
C       -0.01190000       0.09990000       0.19390000
C       -1.36360000      -0.57640000       0.09780000
O       -2.34160000       0.00830000       0.93970000
C       -1.86660000      -1.16720000      -1.20940000
C       -1.55680000      -2.07160000      -0.02280000
C       -0.41120000      -3.05120000      -0.07630000
O       -2.63950000      -2.60720000       0.68040000
H        0.94230000       2.02360000      -0.18660000
H       -0.36950000       1.64090000      -1.31100000
H       -0.73540000       2.14990000       0.34760000
H        0.71620000      -0.45610000      -0.40510000
H        0.33080000       0.04960000       1.23480000
H       -2.78600000       0.70910000       0.45210000
H       -2.91670000      -1.03300000      -1.44980000
H       -1.19570000      -1.16590000      -2.06320000
H        0.41560000      -2.68170000      -0.68710000
H       -0.03750000      -3.26480000       0.93020000
H       -0.75930000      -3.99310000      -0.51240000
H       -3.05550000      -1.85840000       1.13140000
