18
Properties=species:S:1:pos:R:3 gdb_77993=T pbc="F F F"
C       -0.19140000       1.57830000       0.03790000
C        0.09470000       0.08170000       0.02100000
C        1.20730000      -0.49390000      -0.91620000
C        1.81920000      -1.24750000       0.28000000
C        2.29950000      -2.58730000       0.25980000
N        2.69520000      -3.67610000       0.23950000
C        2.21990000      -0.26110000       1.36140000
O        2.70580000       1.00710000       1.05610000
C        0.77390000      -0.57480000       1.23550000
H        0.71860000       2.15290000       0.21720000
H       -0.62390000       1.89510000      -0.91750000
H       -0.91330000       1.82570000       0.82410000
H       -0.83250000      -0.46420000      -0.17860000
H        0.82300000      -1.15800000      -1.69040000
H        1.87840000       0.24060000      -1.36780000
H        2.69650000      -0.73930000       2.21720000
H        3.63670000       0.92570000       0.82040000
H        0.24340000      -1.04360000       2.05650000
