21
Properties=species:S:1:pos:R:3 gdb_106811=T pbc="F F F"
C        0.21680000       1.46590000       0.19710000
C       -0.16980000       0.02380000      -0.15030000
C        0.61480000      -0.53540000      -1.30460000
C        2.03510000      -1.06460000      -1.13120000
C        0.89660000      -1.98790000      -1.53570000
O        0.42200000      -2.94380000      -0.63780000
C        0.68540000      -2.21790000      -3.02560000
C        0.70030000      -0.78530000      -3.59480000
O        0.30990000       0.08730000      -2.53240000
H        1.26990000       1.53120000       0.49040000
H        0.06830000       2.12370000      -0.66390000
H       -0.38900000       1.84530000       1.02560000
H       -0.02400000      -0.63590000       0.71120000
H       -1.23460000      -0.02470000      -0.40820000
H        2.80780000      -0.80680000      -1.84810000
H        2.37760000      -1.16250000      -0.10620000
H        1.09200000      -3.63010000      -0.54860000
H        1.44320000      -2.85240000      -3.49650000
H       -0.29150000      -2.69510000      -3.15530000
H        1.70500000      -0.51730000      -3.95110000
H        0.00170000      -0.63950000      -4.42290000
