19
Properties=species:S:1:pos:R:3 gdb_95222=T pbc="F F F"
O       -0.30640000       0.76370000       1.58950000
C        0.02710000       0.19690000       0.32400000
C        1.20930000      -0.77820000       0.37330000
C        0.94160000      -2.03720000       1.22290000
C       -0.48840000      -2.53730000       1.13780000
O       -1.46230000      -1.75720000       1.85930000
C       -1.53280000      -1.78640000       0.41720000
C       -1.21970000      -0.47640000      -0.28300000
O       -2.32930000       0.39880000      -0.23350000
H       -0.65060000       0.03430000       2.12870000
H        0.29180000       1.05000000      -0.30940000
H        1.42830000      -1.07900000      -0.65930000
H        2.09570000      -0.25610000       0.74540000
H        1.61900000      -2.84020000       0.91400000
H        1.16220000      -1.84430000       2.27960000
H       -0.62990000      -3.60960000       1.26940000
H       -2.40510000      -2.31700000       0.03720000
H       -1.03200000      -0.69780000      -1.34220000
H       -2.21540000       0.90120000       0.58620000
