23
Properties=species:S:1:pos:R:3 gdb_113439=T pbc="F F F"
C       -0.04140000       1.52890000      -0.47050000
C       -0.01840000       0.18150000       0.25940000
C       -1.37930000      -0.47400000       0.29870000
N       -1.80230000      -1.18200000      -0.93550000
C       -1.57970000      -1.93710000       0.28750000
C       -0.57890000      -3.08090000       0.46160000
N       -1.45410000      -3.61810000       1.52940000
C       -1.66480000      -5.04650000       1.58590000
C       -2.58080000      -2.76210000       1.09980000
H        0.95460000       1.98110000      -0.50230000
H       -0.39020000       1.39930000      -1.49950000
H       -0.71320000       2.23850000       0.02580000
H        0.68340000      -0.49610000      -0.23920000
H        0.34360000       0.31480000       1.28730000
H       -2.14740000       0.10280000       0.81630000
H       -2.79890000      -1.05980000      -1.10130000
H       -0.53170000      -3.71800000      -0.43680000
H        0.44010000      -2.84060000       0.78410000
H       -0.72540000      -5.55010000       1.83770000
H       -2.39200000      -5.28480000       2.36960000
H       -2.03600000      -5.47290000       0.63340000
H       -3.12460000      -2.26920000       1.91460000
H       -3.30650000      -3.28550000       0.45190000
