23
Properties=species:S:1:pos:R:3 gdb_101349=T pbc="F F F"
C       -1.26470000       1.12890000       0.22140000
O       -0.79980000      -0.19800000       0.18440000
C        0.55270000      -0.36630000       0.60030000
C        0.71330000      -0.24800000       2.11930000
C        0.98230000      -1.72980000       0.10670000
C        1.48240000      -1.90240000      -1.31320000
C        2.42870000      -2.02540000      -0.14310000
O        3.33990000      -1.00210000       0.11520000
C        4.51160000      -1.09530000      -0.66940000
H       -0.61750000       1.80430000      -0.36140000
H       -2.26380000       1.13270000      -0.22290000
H       -1.34070000       1.52900000       1.24350000
H        1.17890000       0.39930000       0.11770000
H        0.39650000       0.73310000       2.48470000
H        0.11550000      -1.01170000       2.62760000
H        1.76450000      -0.38450000       2.38780000
H        0.39240000      -2.54310000       0.52110000
H        1.20690000      -2.79230000      -1.86830000
H        1.55960000      -0.99930000      -1.90980000
H        2.80110000      -3.02010000       0.10910000
H        5.05060000      -2.03600000      -0.47980000
H        4.28600000      -1.03720000      -1.74370000
H        5.15450000      -0.25720000      -0.39020000
