23
Properties=species:S:1:pos:R:3 gdb_72527=T pbc="F F F"
C       -0.02200000       1.55150000       0.01520000
C       -0.01670000       0.02370000       0.00090000
C        0.71240000      -0.52950000      -1.25980000
C        0.65450000      -2.08080000      -1.27720000
C       -0.11190000      -2.57750000      -0.02260000
C        0.67720000      -2.10430000       1.22700000
C        0.73530000      -0.55290000       1.23740000
C       -1.46240000      -1.90290000      -0.00400000
C       -1.41060000      -0.56980000       0.00800000
H        0.99800000       1.95140000       0.00970000
H       -0.54240000       1.95280000      -0.86160000
H       -0.52630000       1.93630000       0.90870000
H        0.24580000      -0.11240000      -2.15750000
H        1.75080000      -0.17710000      -1.24980000
H        0.15360000      -2.44030000      -2.18050000
H        1.66260000      -2.51050000      -1.27920000
H       -0.19480000      -3.66740000      -0.03200000
H        0.19240000      -2.48040000       2.13230000
H        1.68500000      -2.53390000       1.20300000
H        1.77340000      -0.20030000       1.21480000
H        0.28550000      -0.15260000       2.15120000
H       -2.38480000      -2.47450000      -0.00090000
H       -2.28570000       0.07340000       0.02210000
