16
Properties=species:S:1:pos:R:3 gdb_29193=T pbc="F F F"
C       -0.01290000       1.56020000      -0.00380000
C       -0.00050000       0.05790000      -0.01670000
C       -0.04700000      -0.67140000      -1.16090000
N       -0.02100000      -2.02390000      -1.12760000
C        0.05460000      -2.78010000       0.07460000
O        0.07260000      -3.99150000       0.00040000
N        0.09490000      -2.04670000       1.23170000
C        0.07520000      -0.73260000       1.19290000
N        0.16520000      -0.08560000       2.38930000
H        0.88030000       1.97200000       0.48230000
H       -0.04450000       1.95680000      -1.02230000
H       -0.88680000       1.96390000       0.52540000
H       -0.10400000      -0.21070000      -2.14180000
H       -0.05510000      -2.57060000      -1.97460000
H        0.07490000      -0.66350000       3.21000000
H       -0.09810000       0.88070000       2.46690000
