17
Properties=species:S:1:pos:R:3 gdb_63116=T pbc="F F F"
C        0.01050000       1.57300000       0.02520000
C        0.04490000       0.06170000       0.01940000
N       -1.17250000      -0.52760000      -0.48240000
C        1.32640000      -0.69310000      -0.21030000
O        2.47090000      -0.01870000       0.29570000
C        1.96020000      -0.09190000       1.65140000
C        0.65760000      -0.74170000       1.17850000
C       -0.02590000      -1.79190000       1.84840000
N       -0.59120000      -2.65030000       2.38320000
H        0.98900000       1.99760000       0.25410000
H       -0.28050000       1.93030000      -0.96890000
H       -0.73030000       1.93850000       0.74100000
H       -1.23470000      -0.41170000      -1.48930000
H       -1.24480000      -1.51800000      -0.27490000
H        1.46580000      -1.47270000      -0.95240000
H        2.57120000      -0.76800000       2.25670000
H        1.89000000       0.88920000       2.13130000
