16
Properties=species:S:1:pos:R:3 gdb_19462=T pbc="F F F"
O       -0.66870000       0.80660000       0.62710000
C        0.13730000       1.02550000      -0.24410000
C        1.31230000       1.95840000      -0.14510000
C        1.11980000       3.40290000      -0.78540000
C        0.37260000       3.76530000       0.54100000
C        1.47640000       2.82900000       1.14890000
C        2.73790000       3.62030000       0.77240000
C        2.50790000       3.99070000      -0.49070000
H        0.05880000       0.51070000      -1.23120000
H        2.20500000       1.43300000      -0.50330000
H        0.68150000       3.54470000      -1.77290000
H        0.39280000       4.81410000       0.84290000
H       -0.63360000       3.34880000       0.61660000
H        1.38760000       2.39480000       2.14260000
H        3.59010000       3.80690000       1.40980000
H        3.11500000       4.56500000      -1.17570000
