16
Properties=species:S:1:pos:R:3 gdb_65828=T pbc="F F F"
C       -0.05170000       1.53450000       0.03390000
C        0.05930000       0.01390000      -0.03050000
C        0.83470000      -0.52710000      -1.26120000
C        1.48700000      -1.79340000      -0.70750000
C        1.63840000      -1.49500000       0.77870000
O        2.32880000      -2.02810000       1.59030000
O        0.81710000      -0.44150000       1.10750000
C       -1.28570000      -0.60170000       0.03590000
N       -2.33660000      -1.08100000       0.06030000
H        0.95190000       1.96680000       0.03230000
H       -0.60580000       1.90870000      -0.83120000
H       -0.57000000       1.84420000       0.94350000
H        0.17960000      -0.69360000      -2.11680000
H        1.59120000       0.21090000      -1.54270000
H        0.83790000      -2.66980000      -0.81240000
H        2.45480000      -2.04100000      -1.14370000
