19
Properties=species:S:1:pos:R:3 gdb_65987=T pbc="F F F"
C        0.08410000       1.56560000      -0.25790000
C       -0.04610000       0.05740000      -0.03000000
C        0.88090000      -0.83100000      -0.89900000
O        1.64770000      -1.21640000       0.28980000
C        0.85250000      -0.46040000       1.10730000
O        0.93640000      -0.33070000       2.28800000
C       -1.49600000      -0.37630000       0.05040000
C       -1.91990000      -1.65250000       0.73480000
C       -2.25330000      -0.31720000       1.35370000
H        1.13120000       1.87490000      -0.33190000
H       -0.42480000       1.85680000      -1.18300000
H       -0.37590000       2.11210000       0.56970000
H        0.41380000      -1.70730000      -1.35210000
H        1.52110000      -0.31290000      -1.61620000
H       -2.06160000      -0.10760000      -0.83940000
H       -2.71810000      -2.22890000       0.28080000
H       -1.16250000      -2.25540000       1.22450000
H       -1.69740000      -0.03370000       2.24020000
H       -3.28240000       0.02280000       1.33160000
