18
Properties=species:S:1:pos:R:3 gdb_69400=T pbc="F F F"
C       -0.08420000       1.55820000       0.00870000
C        0.08160000       0.06170000      -0.01850000
N       -0.76880000      -0.80160000       0.85340000
C        0.69710000      -0.75120000       1.07070000
C        1.45320000      -1.92750000       0.44660000
C        0.94890000      -3.27770000       0.94330000
O        1.66590000      -4.20620000       1.21700000
C        1.17320000      -1.74080000      -1.03930000
C        0.44080000      -0.65320000      -1.28440000
H        0.78710000       2.05870000      -0.42650000
H       -0.96680000       1.86720000      -0.56300000
H       -0.20470000       1.92290000       1.03400000
H       -1.21190000      -0.21710000       1.56170000
H        1.07230000      -0.29890000       1.98240000
H        2.52750000      -1.88810000       0.65930000
H       -0.15540000      -3.33970000       1.02330000
H        1.52250000      -2.45360000      -1.77720000
H        0.12440000      -0.31240000      -2.26340000
