19
Properties=species:S:1:pos:R:3 gdb_72398=T pbc="F F F"
C        0.04830000       1.47760000       0.08650000
C       -0.02520000      -0.02480000       0.00220000
C        0.74250000      -0.72640000      -1.17180000
O        0.94610000      -2.04200000      -0.66320000
C        0.37730000      -1.99610000       0.68150000
C        1.00330000      -3.05060000       1.54820000
O        0.66110000      -0.67540000       1.09350000
C       -1.13930000      -1.95200000       0.47380000
C       -1.38660000      -0.71650000       0.04130000
H        1.08970000       1.81110000       0.10820000
H       -0.44180000       1.93230000      -0.78010000
H       -0.45060000       1.83650000       0.99080000
H        0.17130000      -0.75140000      -2.10620000
H        1.70990000      -0.23920000      -1.34220000
H        2.08180000      -2.88930000       1.60630000
H        0.57730000      -3.01310000       2.55380000
H        0.81780000      -4.03950000       1.12160000
H       -1.80300000      -2.80340000       0.53900000
H       -2.30610000      -0.29710000      -0.34470000
