19
Properties=species:S:1:pos:R:3 gdb_98083=T pbc="F F F"
C       -0.22900000       1.43200000      -0.20180000
O       -0.09220000       0.00370000      -0.16600000
C        0.52310000      -0.53630000      -1.21720000
O        0.95330000       0.08030000      -2.16210000
C        0.64040000      -2.07720000      -1.07900000
O        0.32760000      -2.62160000      -0.05130000
C        1.16610000      -2.79240000      -2.31180000
C        1.65870000      -4.19770000      -1.96270000
C        0.05750000      -2.81720000      -3.38900000
H        0.75370000       1.90840000      -0.24210000
H       -0.80560000       1.73880000      -1.07810000
H       -0.75010000       1.70140000       0.71600000
H        1.98640000      -2.18270000      -2.70710000
H        0.84900000      -4.79980000      -1.54140000
H        2.03470000      -4.69980000      -2.85890000
H        2.46350000      -4.16600000      -1.22300000
H       -0.81170000      -3.38460000      -3.04010000
H       -0.26400000      -1.80750000      -3.65440000
H        0.43600000      -3.30110000      -4.29390000
