18
Properties=species:S:1:pos:R:3 gdb_99808=T pbc="F F F"
C        0.14100000       1.70770000       0.15160000
C       -0.00560000       0.17970000      -0.02910000
C        0.62640000      -0.58260000       1.17630000
N       -0.02860000      -0.22290000       2.42720000
C       -1.42330000      -0.18190000      -0.12440000
N       -2.53360000      -0.49470000      -0.21760000
C        0.78640000      -0.24570000      -1.29920000
N        0.07740000      -0.79890000      -2.31150000
O        1.98780000      -0.06820000      -1.33590000
H        1.20220000       1.95700000       0.08900000
H       -0.39640000       2.25160000      -0.62910000
H       -0.24670000       1.99490000       1.12950000
H        0.61110000      -1.66010000       0.94870000
H        1.67360000      -0.27440000       1.21190000
H       -0.90720000      -0.72130000       2.52860000
H        0.55310000      -0.48480000       3.21470000
H       -0.91630000      -0.94700000      -2.25800000
H        0.57670000      -1.07820000      -3.14020000
