17
Properties=species:S:1:pos:R:3 gdb_67477=T pbc="F F F"
O       -0.09060000       1.41570000      -0.11510000
C       -0.00260000       0.04630000      -0.00270000
C       -1.18150000      -0.85970000      -0.14450000
C       -1.26450000      -1.83260000      -1.30720000
O       -0.03180000      -2.44340000      -1.65150000
C        1.09780000      -1.59620000      -1.64840000
C        1.21890000      -0.83690000      -0.33240000
O        0.92850000      -1.70370000       0.80150000
C       -0.26810000      -0.97580000       1.07660000
H        0.59800000       1.81240000       0.43170000
H       -2.12120000      -0.36890000       0.10160000
H       -1.94510000      -2.66030000      -1.08270000
H       -1.67590000      -1.28790000      -2.17550000
H        1.95640000      -2.25660000      -1.80380000
H        1.07230000      -0.86290000      -2.47450000
H        2.19290000      -0.34670000      -0.22180000
H       -0.61040000      -0.92550000       2.10320000
