15
Properties=species:S:1:pos:R:3 gdb_129195=T pbc="F F F"
N       -0.13570000       1.31460000      -0.08600000
C       -0.03520000       0.04400000      -0.08070000
N        1.04330000      -0.84910000      -0.16590000
N        0.66840000      -2.19920000       0.10190000
C       -0.60960000      -2.09990000       0.14520000
O       -1.56910000      -3.00560000       0.36940000
C       -2.83880000      -2.30950000       0.23240000
C       -2.51980000      -0.78580000       0.27680000
N       -1.11140000      -0.83990000      -0.03040000
H        0.77840000       1.75830000      -0.13530000
H        1.95230000      -0.59040000       0.18250000
H       -3.28090000      -2.59820000      -0.72580000
H       -3.48720000      -2.63800000       1.04520000
H       -3.08790000      -0.22400000      -0.46780000
H       -2.70140000      -0.34390000       1.26330000
