19
Properties=species:S:1:pos:R:3 gdb_92923=T pbc="F F F"
C        0.01930000       1.48640000      -0.00970000
N        0.05350000       0.03570000      -0.00140000
C        0.60800000      -0.50840000      -1.23140000
C        0.77580000      -1.99840000      -1.17180000
C        0.66240000      -2.70250000      -0.05080000
C        0.39840000      -2.02710000       1.28100000
C        0.69140000      -0.51560000       1.17910000
C       -0.97500000      -2.28330000       1.73780000
N       -2.04740000      -2.49870000       2.11120000
H        1.02460000       1.94820000      -0.04850000
H       -0.54250000       1.83450000      -0.88240000
H       -0.48980000       1.85040000       0.88760000
H       -0.06380000      -0.24920000      -2.06060000
H        1.58890000      -0.04940000      -1.48510000
H        1.00540000      -2.49460000      -2.11040000
H        0.76090000      -3.78300000      -0.04800000
H        1.06660000      -2.45560000       2.04000000
H        1.79140000      -0.38410000       1.17300000
H        0.30530000      -0.00080000       2.06320000
