16
Properties=species:S:1:pos:R:3 gdb_79948=T pbc="F F F"
C       -0.08710000       1.54910000       0.04780000
C        0.00400000       0.04790000      -0.07760000
C        0.71000000      -0.66190000      -1.17250000
C        1.75740000       0.10500000      -2.00040000
N        2.80590000       0.50600000      -1.02800000
C        2.43710000       0.05120000       0.10390000
N        1.25820000      -0.73130000       0.20780000
C        2.32180000      -0.72550000      -3.07070000
N        2.73630000      -1.39080000      -3.91880000
H        0.80250000       2.06480000      -0.31950000
H       -0.95050000       1.90650000      -0.52340000
H       -0.23970000       1.83720000       1.09250000
H       -0.85920000      -0.47480000       0.32830000
H        0.30730000      -1.58300000      -1.57900000
H        1.35300000       1.01140000      -2.46850000
H        3.01430000       0.21990000       1.00810000
