17
Properties=species:S:1:pos:R:3 gdb_71878=T pbc="F F F"
O        0.07370000       1.39440000       0.06380000
C        0.02290000      -0.00440000       0.01810000
C        0.13840000      -0.65290000      -1.43890000
C       -1.29320000      -1.29580000      -1.31900000
N       -1.28620000      -2.72820000      -0.75840000
C       -0.85280000      -2.03720000       0.45480000
N        0.29040000      -2.15120000       0.99440000
C        0.77290000      -0.75280000       1.15980000
C       -1.37100000      -0.65030000       0.08330000
H        0.98860000       1.66900000      -0.06330000
H        0.13130000       0.15080000      -2.17850000
H        0.96230000      -1.33970000      -1.63820000
H       -2.00420000      -1.14590000      -2.13170000
H       -2.26770000      -3.00720000      -0.70360000
H        1.86280000      -0.75170000       1.04410000
H        0.53570000      -0.30960000       2.13660000
H       -2.24960000      -0.20960000       0.55120000
