17
Properties=species:S:1:pos:R:3 gdb_31745=T pbc="F F F"
C       -0.11180000       1.40290000       0.00980000
O       -0.02080000      -0.02050000       0.00360000
C       -1.16710000      -0.70560000       0.01130000
C       -1.37320000      -2.04990000       0.00980000
C       -2.80110000      -2.19780000       0.02060000
O       -3.40110000      -3.40730000       0.02250000
C       -4.81660000      -3.37370000       0.03380000
C       -3.35100000      -0.95040000       0.02780000
O       -2.32390000      -0.01520000       0.02200000
H        0.91740000       1.76270000       0.00230000
H       -0.64140000       1.77000000      -0.87510000
H       -0.62590000       1.76320000       0.90660000
H       -0.63170000      -2.82950000       0.00220000
H       -5.15730000      -4.41000000       0.03410000
H       -5.19190000      -2.86360000       0.93130000
H       -5.20610000      -2.85950000      -0.85520000
H       -4.34750000      -0.55160000       0.03670000
