23
Properties=species:S:1:pos:R:3 gdb_103742=T pbc="F F F"
C       -0.07200000       1.54090000      -0.00290000
C       -0.06480000       0.02020000       0.05680000
C       -1.32290000      -0.56500000      -0.55750000
O       -1.37020000      -0.16450000      -1.92520000
C        1.23670000      -0.71810000      -0.16500000
C        0.63430000      -0.68300000       1.22220000
C        1.31030000       0.15050000       2.30120000
C        0.08330000      -1.97940000       1.78640000
O        1.17590000      -2.72550000       2.31840000
H        0.89310000       1.97540000       0.26130000
H       -0.31910000       1.86080000      -1.01810000
H       -0.82590000       1.96100000       0.67460000
H       -1.32980000      -1.65980000      -0.48740000
H       -2.20750000      -0.19210000      -0.01440000
H       -2.21930000      -0.43730000      -2.28460000
H        1.20360000      -1.65570000      -0.71090000
H        2.13300000      -0.13450000      -0.35050000
H        1.87130000       0.99160000       1.89140000
H        0.57610000       0.55090000       3.01150000
H        2.00710000      -0.47930000       2.85970000
H       -0.65320000      -1.75540000       2.57630000
H       -0.42940000      -2.56550000       1.01360000
H        0.81690000      -3.49120000       2.77590000
