20
Properties=species:S:1:pos:R:3 gdb_73722=T pbc="F F F"
C       -0.00700000       1.45650000       0.00680000
C       -0.03340000      -0.05770000      -0.02810000
C        1.01780000      -0.64110000      -0.96510000
O        0.99560000      -2.04510000      -1.15220000
C       -0.30310000      -2.60760000      -1.24370000
C       -1.12220000      -2.24120000      -0.01010000
C       -0.27550000      -2.11680000       1.28470000
N       -0.39860000      -0.61520000       1.30440000
C       -1.34020000      -0.72600000       0.11440000
H        0.96370000       1.82040000       0.36150000
H       -0.18730000       1.87810000      -0.98800000
H       -0.77280000       1.83080000       0.68980000
H        0.89330000      -0.13030000      -1.93630000
H        2.02460000      -0.40640000      -0.60050000
H       -0.81910000      -2.27400000      -2.16030000
H       -0.14520000      -3.68830000      -1.31550000
H       -2.02290000      -2.85080000       0.07680000
H       -0.78730000      -2.50770000       2.16680000
H        0.74780000      -2.49610000       1.25410000
H       -2.29300000      -0.20570000       0.07960000
