25
Properties=species:S:1:pos:R:3 gdb_57538=T pbc="F F F"
C       -0.24860000       1.53530000       0.09150000
C        0.02940000       0.02140000       0.04510000
C        0.77280000      -0.40640000       1.32430000
C       -1.31460000      -0.72860000      -0.02170000
C        0.84300000      -0.35390000      -1.21870000
C        2.23050000       0.28850000      -1.37110000
C        2.91660000      -0.17010000      -2.63540000
C        4.36470000      -0.39330000      -2.71640000
O        3.45950000      -1.49510000      -2.62510000
H        0.67180000       2.11800000       0.19710000
H       -0.75810000       1.87280000      -0.81820000
H       -0.89120000       1.78410000       0.94310000
H        0.15800000      -0.21330000       2.21030000
H        1.00550000      -1.47690000       1.30790000
H        1.71260000       0.13910000       1.45490000
H       -1.88300000      -0.44480000      -0.91450000
H       -1.16200000      -1.81300000      -0.05380000
H       -1.93370000      -0.50370000       0.85380000
H        0.97150000      -1.44340000      -1.24220000
H        0.24180000      -0.09930000      -2.10290000
H        2.15010000       1.38240000      -1.39940000
H        2.86970000       0.03330000      -0.51920000
H        2.39540000       0.07700000      -3.56350000
H        4.88110000      -0.28830000      -3.66990000
H        4.98280000      -0.22270000      -1.83530000
