19
Properties=species:S:1:pos:R:3 gdb_63883=T pbc="F F F"
C       -0.04100000       1.54230000       0.02520000
C        0.01600000       0.01140000       0.01150000
C       -1.38560000      -0.59660000      -0.09190000
C        0.98640000      -0.56530000      -1.09470000
C        1.98860000      -1.29280000      -0.18390000
O        1.11720000      -1.91980000       0.81770000
C        0.77340000      -0.55890000       1.24200000
C        2.25340000      -0.25050000       0.92760000
O        3.17470000       0.32460000       1.41420000
H        0.95710000       1.98700000       0.09650000
H       -0.51150000       1.92000000      -0.88860000
H       -0.62960000       1.90640000       0.87470000
H       -1.84650000      -0.33910000      -1.05210000
H       -1.33970000      -1.68620000      -0.01720000
H       -2.03990000      -0.22250000       0.70360000
H        0.47910000      -1.26380000      -1.76460000
H        1.45940000       0.21580000      -1.69730000
H        2.74510000      -1.95330000      -0.60280000
H        0.32250000      -0.49210000       2.23100000
