18
Properties=species:S:1:pos:R:3 gdb_72963=T pbc="F F F"
C       -0.03100000       1.60640000      -0.00510000
C        0.00240000       0.10790000       0.06680000
C       -1.23970000      -0.79490000       0.02660000
N       -0.55770000      -1.81850000       0.89520000
C        0.57560000      -0.89410000       1.06240000
C        1.20610000      -0.75900000      -0.32490000
N        1.10400000      -1.79890000      -1.32990000
C        2.46300000      -0.05440000      -0.33310000
N        3.47810000       0.50140000      -0.33570000
H        0.95270000       2.03840000       0.19700000
H       -0.34020000       1.93940000      -1.00270000
H       -0.74000000       2.01840000       0.72160000
H       -2.08880000      -0.31930000       0.52600000
H       -1.55470000      -1.17700000      -0.94920000
H       -1.05730000      -1.96460000       1.76450000
H        1.12590000      -0.78800000       1.99060000
H        2.02300000      -2.19790000      -1.49500000
H        0.53040000      -2.54150000      -0.92850000
