14
Properties=species:S:1:pos:R:3 gdb_131053=T pbc="F F F"
O        0.69250000       0.90780000       1.33570000
C        0.32150000       1.45390000       0.31860000
N        1.07670000       1.56050000      -0.81050000
C        2.45050000       1.07700000      -0.82730000
C        3.42150000       2.05150000      -0.23210000
C        3.82700000       2.29710000       1.04300000
N        4.71420000       3.34500000       0.98370000
N        4.86820000       3.73750000      -0.19880000
O        4.03480000       2.91590000      -1.04050000
H       -0.68080000       1.90640000       0.19810000
H        0.75020000       2.13990000      -1.56750000
H        2.47700000       0.15410000      -0.24480000
H        2.73720000       0.85410000      -1.85710000
H        3.54230000       1.82220000       1.96540000
