19
Properties=species:S:1:pos:R:3 gdb_115546=T pbc="F F F"
C        0.13820000       1.59440000      -0.07040000
N       -0.21170000       0.19960000      -0.32540000
C        0.70880000      -0.50640000      -1.16830000
C        1.97430000      -1.21530000      -0.60780000
O        1.56150000      -2.48220000      -1.16670000
C        0.29660000      -1.95280000      -1.62580000
C       -0.89130000      -2.59840000      -0.92180000
C        0.16960000      -2.09190000      -3.08510000
N        0.06600000      -2.17660000      -4.23330000
H        1.11800000       1.74020000       0.41440000
H        0.14880000       2.14320000      -1.01800000
H       -0.62650000       2.04580000       0.56750000
H       -0.34920000      -0.29030000       0.55140000
H        0.94090000       0.12840000      -2.02610000
H        2.94280000      -0.89180000      -1.00370000
H        2.02540000      -1.25180000       0.48890000
H       -0.76070000      -2.54370000       0.16190000
H       -1.82050000      -2.09280000      -1.19530000
H       -0.96070000      -3.65190000      -1.20420000
