13
Properties=species:S:1:pos:R:3 gdb_8778=T pbc="F F F"
C        0.08190000       1.39640000       0.04740000
N        0.02640000      -0.05140000       0.04610000
C       -1.12200000      -0.60640000      -0.04600000
N       -2.35830000      -0.04720000      -0.17510000
C       -1.14210000      -2.10440000      -0.04060000
O       -2.16330000      -2.75050000      -0.07760000
C        0.17170000      -2.76160000       0.02250000
N        1.14560000      -3.38270000       0.06770000
H        1.12190000       1.72310000       0.09940000
H       -0.36970000       1.82280000      -0.86160000
H       -0.45000000       1.82590000       0.91160000
H       -2.49850000       0.92350000       0.04410000
H       -3.14810000      -0.66840000      -0.08860000
