18
Properties=species:S:1:pos:R:3 gdb_95722=T pbc="F F F"
O        0.01320000       1.44320000       0.05560000
C        0.03880000       0.02350000       0.02510000
C       -1.39420000      -0.44720000       0.23770000
C       -1.54270000      -1.96570000       0.15040000
N       -1.30700000      -2.51290000      -1.18920000
C       -0.05960000      -2.73540000      -1.72990000
O        0.19050000      -3.63580000      -2.48910000
O        0.90970000      -1.85520000      -1.34160000
C        0.61480000      -0.45360000      -1.31250000
H        0.92060000       1.76480000       0.04190000
H        0.67560000      -0.38060000       0.82910000
H       -1.73190000      -0.11010000       1.22330000
H       -2.03630000       0.03120000      -0.51080000
H       -0.88500000      -2.44810000       0.88710000
H       -2.56780000      -2.23610000       0.41580000
H       -1.94820000      -3.23620000      -1.47920000
H       -0.06090000      -0.18440000      -2.13190000
H        1.57710000       0.03850000      -1.48850000
