19
Properties=species:S:1:pos:R:3 gdb_106293=T pbc="F F F"
C        0.10520000       1.33630000       0.13260000
O       -0.11280000      -0.04340000      -0.08760000
C        0.58010000      -0.55920000      -1.16970000
C        2.15490000      -0.53690000      -1.29410000
C        1.82850000      -1.66990000      -2.31050000
O        2.85650000      -2.51190000      -2.71780000
C        0.68410000      -2.10600000      -1.31770000
C        1.00430000      -0.89260000      -3.35690000
C        0.18100000      -0.15800000      -2.60780000
H        1.15940000       1.54710000       0.36220000
H       -0.18710000       1.94390000      -0.73590000
H       -0.50970000       1.62410000       0.98800000
H        2.63140000       0.36260000      -1.68770000
H        2.65780000      -0.90530000      -0.39540000
H        2.48620000      -3.18260000      -3.30160000
H        1.06590000      -2.59440000      -0.41670000
H       -0.18150000      -2.62900000      -1.72960000
H        1.11110000      -0.96740000      -4.43090000
H       -0.60030000       0.53550000      -2.88570000
