16
Properties=species:S:1:pos:R:3 gdb_124180=T pbc="F F F"
C        0.05300000       1.53460000       0.11790000
C        0.02250000       0.07980000       0.08070000
C       -0.00500000      -1.12240000       0.05390000
C       -0.04990000      -2.58360000       0.02150000
C       -1.43700000      -3.13340000      -0.13810000
C       -2.06370000      -3.79910000      -1.14530000
C       -3.36640000      -4.02710000      -0.62810000
N       -3.51200000      -3.54530000       0.58090000
O       -2.28010000      -2.97500000       0.89590000
H        0.53950000       1.94650000      -0.77300000
H       -0.96020000       1.94830000       0.16460000
H        0.60030000       1.89820000       0.99430000
H        0.55990000      -2.96430000      -0.80550000
H        0.38730000      -2.99060000       0.94290000
H       -1.66190000      -4.07870000      -2.10460000
H       -4.20280000      -4.52760000      -1.09570000
