23
Properties=species:S:1:pos:R:3 gdb_109774=T pbc="F F F"
C       -0.16500000       1.06590000       0.26290000
O        0.68540000      -0.06270000       0.18820000
C        0.89110000      -0.54790000      -1.10500000
C        1.47140000      -1.93120000      -1.11630000
O        1.67600000      -2.55770000       0.11540000
C        0.05600000      -1.71360000      -1.62690000
C       -1.14060000      -2.27640000      -0.87600000
C       -2.45500000      -1.67510000      -1.39640000
C       -1.16450000      -3.81050000      -0.96880000
H        0.23560000       1.90260000      -0.32750000
H       -1.17750000       0.83850000      -0.09350000
H       -0.21140000       1.36330000       1.31300000
H        1.25330000       0.20350000      -1.80740000
H        2.25270000      -2.16850000      -1.83350000
H        1.53700000      -1.88430000       0.79410000
H       -0.04430000      -1.74100000      -2.71130000
H       -1.03260000      -2.00720000       0.18040000
H       -2.61900000      -1.94520000      -2.44660000
H       -3.31020000      -2.04800000      -0.82290000
H       -2.45870000      -0.58210000      -1.33470000
H       -0.25480000      -4.23380000      -0.53710000
H       -2.02740000      -4.22100000      -0.43290000
H       -1.23650000      -4.13900000      -2.01280000
