15
Properties=species:S:1:pos:R:3 gdb_12609=T pbc="F F F"
C       -0.01000000       1.47080000       0.00390000
N        0.00740000       0.01920000       0.00420000
C        0.08410000      -0.72990000      -1.16560000
O        0.14250000      -0.25500000      -2.27280000
C        0.07940000      -2.20540000      -0.77620000
C       -0.00930000      -2.21510000       0.75700000
C       -0.05070000      -0.74590000       1.16740000
O       -0.12070000      -0.29580000       2.28410000
H        0.89970000       1.85960000      -0.46050000
H       -0.86970000       1.83850000      -0.56190000
H       -0.07340000       1.79810000       1.04180000
H       -0.76590000      -2.69570000      -1.26600000
H        0.98700000      -2.67450000      -1.16440000
H       -0.90500000      -2.71060000       1.14020000
H        0.84770000      -2.68970000       1.24170000
