14
Properties=species:S:1:pos:R:3 gdb_27587=T pbc="F F F"
N       -0.01830000       1.39540000       0.14580000
C        0.00570000       0.02450000       0.05350000
C       -1.17900000      -0.72680000       0.04160000
C       -1.09120000      -2.11500000      -0.00360000
N        0.05580000      -2.80940000      -0.03780000
C        1.17300000      -2.07980000      -0.02570000
C        1.21080000      -0.69320000       0.01750000
C       -2.31170000      -2.88370000      -0.01880000
N       -3.30970000      -3.46820000      -0.03090000
H        0.81590000       1.89420000      -0.11900000
H       -0.87560000       1.86470000      -0.09850000
H       -2.14880000      -0.24300000       0.06870000
H        2.10410000      -2.64020000      -0.05480000
H        2.16300000      -0.17290000       0.02530000
