23
Properties=species:S:1:pos:R:3 gdb_63398=T pbc="F F F"
C       -0.43060000       1.52080000      -0.01180000
C        0.02040000       0.06540000      -0.07960000
C       -1.11170000      -0.89900000       0.24370000
C        0.89570000      -0.28850000      -1.30930000
C        2.06330000      -0.35280000      -0.30120000
O        1.15590000      -0.15650000       0.81110000
C        2.85370000      -1.62270000      -0.19970000
C        4.16340000      -1.74490000      -0.94320000
C        4.15630000      -1.63950000       0.55930000
H        0.39980000       2.19710000      -0.23530000
H       -1.23550000       1.71500000      -0.72950000
H       -0.80060000       1.75690000       0.99110000
H       -1.93270000      -0.78840000      -0.47330000
H       -0.75960000      -1.93380000       0.21200000
H       -1.50490000      -0.70350000       1.24680000
H        0.65570000      -1.25060000      -1.76780000
H        0.96630000       0.47370000      -2.08740000
H        2.75650000       0.49850000      -0.38620000
H        2.24430000      -2.52030000      -0.13590000
H        4.40620000      -2.69950000      -1.39610000
H        4.50680000      -0.88610000      -1.51120000
H        4.49050000      -0.70870000       1.00540000
H        4.39670000      -2.52210000       1.14100000
