18
Properties=species:S:1:pos:R:3 gdb_9292=T pbc="F F F"
C        0.34680000       0.86220000      -0.21960000
O       -0.03850000      -0.44070000       0.15950000
C       -1.41960000      -0.73530000       0.02100000
C       -1.87880000      -0.80650000      -1.43720000
C       -1.62700000      -2.05430000       0.76340000
O       -0.97240000      -3.13960000       0.10260000
C        0.30430000      -3.40450000       0.45770000
O        0.96180000      -4.23030000      -0.09950000
H        1.39460000       0.97940000       0.06690000
H        0.26110000       1.03010000      -1.30150000
H       -0.25090000       1.62680000       0.30060000
H       -2.01230000       0.02960000       0.55410000
H       -1.74240000       0.15170000      -1.94420000
H       -1.31810000      -1.57440000      -1.97490000
H       -2.94340000      -1.05650000      -1.48480000
H       -1.25590000      -1.95560000       1.79030000
H       -2.68830000      -2.31240000       0.79540000
H        0.64740000      -2.79430000       1.31180000
