19
Properties=species:S:1:pos:R:3 gdb_61282=T pbc="F F F"
C        0.14660000       1.62730000      -0.05460000
C        0.00340000       0.10240000       0.00030000
C        0.61260000      -0.57550000      -1.25010000
C       -0.01800000      -0.15120000      -2.49860000
N       -0.52430000       0.18990000      -3.47990000
C        0.64820000      -0.48770000       1.26200000
C       -0.12250000      -0.12380000       2.53400000
N        0.60980000      -0.18320000       3.68270000
O       -1.30150000       0.17270000       2.52700000
H        1.20270000       1.92480000      -0.06150000
H       -0.32230000       2.03300000      -0.95520000
H       -0.33600000       2.08420000       0.81220000
H       -1.06250000      -0.14240000       0.04020000
H        1.68580000      -0.35490000      -1.31650000
H        0.51930000      -1.66530000      -1.17500000
H        0.66060000      -1.58490000       1.20320000
H        1.69560000      -0.17020000       1.34780000
H        1.57690000      -0.45410000       3.69490000
H        0.13910000      -0.02130000       4.55800000
