16
Properties=species:S:1:pos:R:3 gdb_77649=T pbc="F F F"
O       -0.01130000       1.36600000       0.03110000
C       -0.08330000      -0.01910000       0.04280000
C       -1.36760000      -0.80050000       0.06780000
O       -1.67840000      -1.79230000       0.96590000
C       -2.42440000      -0.11070000      -0.78720000
N       -1.43530000       0.07840000      -1.90510000
C       -0.45170000      -0.79440000      -1.20710000
C        0.33780000      -1.76580000      -1.86490000
C        0.99130000      -2.60360000      -2.43250000
H       -0.38620000       1.63220000      -0.82450000
H        0.71760000      -0.47550000       0.62030000
H       -1.28550000      -1.57680000       1.81850000
H       -3.22870000      -0.80370000      -1.04930000
H       -2.84770000       0.82350000      -0.40350000
H       -1.75520000      -0.35220000      -2.76570000
H        1.57640000      -3.33800000      -2.92810000
