17
Properties=species:S:1:pos:R:3 gdb_70214=T pbc="F F F"
C       -0.16140000       1.52030000       0.08150000
C        0.05310000       0.02980000       0.04230000
C       -0.97420000      -0.82450000      -0.69140000
O       -1.78400000      -1.60130000       0.21110000
C       -1.17920000      -2.33290000       1.18140000
O       -1.83460000      -3.06280000       1.87130000
C        0.32790000      -2.14720000       1.32980000
C        0.75430000      -0.70590000       1.10320000
O        1.40950000      -0.41350000      -0.13420000
H        0.62110000       2.00610000       0.66890000
H       -0.14150000       1.94050000      -0.93010000
H       -1.13430000       1.75690000       0.52520000
H       -1.68920000      -0.21760000      -1.24970000
H       -0.45590000      -1.48830000      -1.39160000
H        0.60230000      -2.51690000       2.31800000
H        0.82900000      -2.77960000       0.58700000
H        1.14640000      -0.16310000       1.96130000
