19
Properties=species:S:1:pos:R:3 gdb_73803=T pbc="F F F"
C        0.07070000       1.56370000      -0.08870000
C        0.02540000       0.06980000      -0.06860000
C       -1.01940000      -0.74760000       0.07100000
C       -2.47030000      -0.44410000       0.25010000
C       -0.52590000      -2.18700000       0.04260000
O        0.87400000      -2.10610000      -0.22590000
C        1.28550000      -0.74370000      -0.20490000
C       -0.79320000      -2.89890000       1.30030000
C       -1.03150000      -3.47370000       2.32900000
H        0.71650000       1.94690000       0.71160000
H        0.48990000       1.93370000      -1.03280000
H       -0.91900000       2.00850000       0.03690000
H       -3.06670000      -0.86680000      -0.56870000
H       -2.84750000      -0.89030000       1.17760000
H       -2.66260000       0.63070000       0.28460000
H       -1.00050000      -2.75270000      -0.77610000
H        1.83240000      -0.51910000      -1.13360000
H        1.98220000      -0.56440000       0.63120000
H       -1.23180000      -3.98810000       3.23630000
