16
Properties=species:S:1:pos:R:3 gdb_88246=T pbc="F F F"
C       -0.59290000       1.36500000       0.49600000
C       -0.00300000       0.03210000       0.12400000
O        1.35470000       0.00960000      -0.31130000
C        1.04030000      -0.64900000       0.92750000
C        1.57530000      -0.08110000       2.13580000
C        2.02700000       0.36130000       3.15940000
C        2.58500000       0.90690000       4.39360000
C        1.61870000       1.70570000       5.16000000
N        0.86720000       2.33510000       5.76970000
H        0.09210000       1.93460000       1.12700000
H       -0.80460000       1.94720000      -0.40640000
H       -1.53460000       1.22540000       1.03680000
H       -0.65590000      -0.62590000      -0.45310000
H        1.09050000      -1.73640000       0.87390000
H        2.95160000       0.09830000       5.03880000
H        3.45460000       1.53890000       4.17160000
