18
Properties=species:S:1:pos:R:3 gdb_16967=T pbc="F F F"
O        0.14580000       1.39380000      -0.17500000
C        0.02270000      -0.00550000      -0.01320000
C        0.66260000      -0.58350000       1.29520000
C       -0.51140000      -1.36470000       1.90820000
C       -1.20650000      -1.94330000       0.66570000
C       -1.43690000      -0.54100000       0.06510000
C       -2.13600000       0.13110000       1.25260000
O       -1.46490000      -0.40930000       2.40740000
H       -0.05460000       1.81470000       0.66710000
H        0.50690000      -0.42890000      -0.89830000
H        1.52390000      -1.22470000       1.08470000
H        0.99550000       0.21670000       1.96280000
H       -0.26170000      -2.04840000       2.72000000
H       -0.55590000      -2.57870000       0.05860000
H       -2.12840000      -2.48060000       0.90120000
H       -1.98670000      -0.47570000      -0.87410000
H       -2.04700000       1.22430000       1.24420000
H       -3.20510000      -0.11540000       1.29570000
