20
Properties=species:S:1:pos:R:3 gdb_106324=T pbc="F F F"
C       -0.18760000       1.52400000       0.18380000
N        0.09330000       0.09080000       0.20400000
C        1.32850000      -0.49630000      -0.26520000
C        2.59410000       0.27650000       0.12500000
O        2.79410000       1.48360000      -0.57880000
C        2.11930000       0.30050000       1.61880000
C        0.91570000      -0.56500000       1.19740000
C        0.32400000      -1.70110000       1.97840000
O       -0.49390000      -1.24500000       3.04910000
H        0.67160000       2.16940000       0.38700000
H       -0.57050000       1.78070000      -0.80840000
H       -0.97600000       1.73310000       0.91460000
H        1.27700000      -1.24960000      -1.04520000
H        3.46750000      -0.38290000       0.02420000
H        3.62250000       1.87280000      -0.28040000
H        2.80880000      -0.21380000       2.29210000
H        1.88190000       1.28220000       2.03580000
H       -0.23710000      -2.35210000       1.29240000
H        1.11630000      -2.29800000       2.44310000
H       -1.22110000      -0.75490000       2.65030000
