18
Properties=species:S:1:pos:R:3 gdb_79690=T pbc="F F F"
C       -0.04020000       1.64790000       0.00150000
C        0.01500000       0.11180000      -0.01260000
C        0.50380000      -0.73200000      -1.23800000
C        2.02420000      -0.57520000      -1.26220000
C        2.71850000       0.51680000      -0.53390000
N        2.39270000      -0.71160000       0.20590000
C        1.02680000      -0.79810000       0.78510000
C        0.47400000      -1.89220000      -0.18440000
O        0.11260000      -3.02270000      -0.13210000
H        0.40790000       2.09400000      -0.88940000
H       -1.08190000       1.97950000       0.03590000
H        0.46000000       2.06950000       0.87900000
H       -0.98110000      -0.25620000       0.25590000
H       -0.03690000      -0.77480000      -2.18060000
H        2.57960000      -1.19440000      -1.96020000
H        3.78740000       0.60800000      -0.70890000
H        2.23430000       1.45040000      -0.29590000
H        1.01270000      -0.88570000       1.86900000
