18
Properties=species:S:1:pos:R:3 gdb_14846=T pbc="F F F"
C        0.02090000       1.57680000       0.39270000
O        0.68400000       0.38680000       0.02810000
C        0.73300000      -0.55440000       1.05480000
C       -0.53820000      -1.36290000       1.43190000
C        0.36630000      -2.61580000       1.56650000
C        1.45970000      -1.89230000       0.70260000
C        1.42290000      -2.25160000      -0.70200000
C        1.39330000      -2.58270000      -1.85750000
H        0.50870000       2.06750000       1.25010000
H        0.06260000       2.24720000      -0.46880000
H       -1.03330000       1.39880000       0.65210000
H        1.19150000      -0.11910000       1.95800000
H       -1.11400000      -1.04790000       2.30440000
H       -1.19990000      -1.44390000       0.56530000
H        0.71490000      -2.77180000       2.59010000
H       -0.01340000      -3.55660000       1.16880000
H        2.48490000      -1.96570000       1.07670000
H        1.37100000      -2.85800000      -2.88250000
