19
Properties=species:S:1:pos:R:3 gdb_82077=T pbc="F F F"
C       -0.32720000       1.49310000      -0.11320000
C       -0.02550000       0.00340000      -0.00770000
C        0.67270000      -0.64610000      -1.21200000
N        2.00750000      -0.01020000      -1.30000000
C        1.79310000      -1.14380000      -0.37210000
C        1.17650000      -0.54950000       0.89000000
C        2.11740000       0.31800000       1.71820000
N        1.51760000       1.23140000       2.54340000
O        3.31880000       0.13930000       1.71210000
H        0.57820000       2.06040000      -0.33890000
H       -1.04890000       1.66870000      -0.91920000
H       -0.77890000       1.89400000       0.80200000
H       -0.93530000      -0.54840000       0.24720000
H        0.20160000      -1.08530000      -2.08290000
H        2.47350000      -0.38230000      -2.12640000
H        2.38240000      -2.04720000      -0.45200000
H        0.79150000      -1.33160000       1.55320000
H        0.56520000       1.51640000       2.39640000
H        2.12580000       1.86810000       3.03420000
