7
Properties=species:S:1:pos:R:3 gdb_175=T pbc="F F F"
O        0.04560000       1.36890000       0.00900000
N        1.33050000       1.83030000      -0.00090000
C        2.08350000       0.76480000      -0.01380000
C        1.24810000      -0.38380000      -0.01200000
N        0.00240000       0.00430000       0.00210000
H        3.15920000       0.84200000      -0.02380000
H        1.50600000      -1.43100000      -0.02010000
