17
Properties=species:S:1:pos:R:3 gdb_9835=T pbc="F F F"
C       -0.07820000       1.35580000      -0.00130000
O        0.00690000      -0.07370000      -0.03570000
C        0.60100000      -0.58550000      -1.13040000
O        1.02440000       0.09090000      -2.03840000
C        0.62310000      -2.08160000      -1.10430000
N        0.28710000      -2.69160000       0.15950000
C        0.26480000      -2.72070000      -2.45180000
C        1.68390000      -2.72680000      -1.95920000
H        0.91920000       1.80090000      -0.03530000
H       -0.65700000       1.72920000      -0.85000000
H       -0.57370000       1.60050000       0.93830000
H       -0.65080000      -2.42170000       0.43980000
H        0.29420000      -3.70210000       0.06740000
H       -0.30320000      -3.64380000      -2.40270000
H        0.01820000      -2.06170000      -3.27590000
H        2.38920000      -2.06430000      -2.44540000
H        2.10020000      -3.65650000      -1.58550000
