11
Properties=species:S:1:pos:R:3 gdb_130520=T pbc="F F F"
O       -0.10840000       1.27730000       0.01010000
N        1.07060000       2.03720000       0.00290000
C        2.19060000       1.37000000      -0.01170000
N        2.43240000       0.01730000      -0.02150000
C        1.33630000      -0.67620000      -0.01480000
N        1.12460000      -2.02120000      -0.02020000
C       -0.20010000      -2.08890000      -0.00780000
N       -0.95290000      -0.91230000       0.00610000
C        0.00270000      -0.03030000       0.00170000
H        3.05920000       2.02130000      -0.01640000
H       -0.71800000      -3.04110000      -0.00800000
