18
Properties=species:S:1:pos:R:3 gdb_81469=T pbc="F F F"
O        0.02070000       1.49610000      -0.06900000
C        0.01020000       0.09430000       0.01460000
C        0.22010000      -0.66040000       1.34570000
C       -0.49320000       0.00910000       2.52850000
N       -1.94520000       0.17190000       2.31690000
C       -2.43810000       1.25530000       1.46450000
C       -2.40530000      -0.14620000       0.95620000
C       -1.32990000      -0.67810000       0.03420000
O       -0.62390000      -1.71550000       0.80150000
H        0.90800000       1.78120000      -0.30540000
H        0.64600000      -0.35410000      -0.75650000
H        1.21710000      -1.02280000       1.61350000
H       -0.36600000      -0.62780000       3.41110000
H       -0.02420000       0.97610000       2.74660000
H       -3.39240000       1.66830000       1.78320000
H       -1.73570000       1.96960000       1.05550000
H       -3.33030000      -0.71960000       0.91880000
H       -1.72700000      -1.06150000      -0.90860000
