19
Properties=species:S:1:pos:R:3 gdb_48988=T pbc="F F F"
O       -0.75470000       1.01670000       0.49900000
C        0.30760000       0.85730000      -0.04670000
C        1.43840000       1.85070000       0.00420000
C        1.60060000       2.67750000       1.29380000
C        2.54260000       3.83170000       0.81970000
C        2.79290000       3.47910000      -0.66640000
C        3.60120000       2.17280000      -0.71790000
O        2.66980000       1.16780000      -0.26440000
C        1.41000000       2.94380000      -1.09290000
H        0.53040000      -0.04120000      -0.66290000
H        0.63060000       3.03550000       1.64580000
H        2.04330000       2.06170000       2.07940000
H        2.05490000       4.80650000       0.90940000
H        3.47270000       3.87670000       1.39280000
H        3.21430000       4.28400000      -1.27050000
H        3.93610000       1.92400000      -1.73320000
H        4.47610000       2.18720000      -0.05730000
H        1.38260000       2.52630000      -2.10260000
H        0.59580000       3.65940000      -0.96070000
