19
Properties=species:S:1:pos:R:3 gdb_62146=T pbc="F F F"
O       -0.16440000       1.34470000      -0.05560000
C       -0.04190000      -0.06630000       0.01940000
C        0.63410000      -0.64220000      -1.23470000
C       -0.11300000      -0.26510000      -2.52350000
C        0.68360000      -0.60110000      -3.76050000
O        0.29880000      -1.28720000      -4.67160000
C        0.69580000      -0.51320000       1.30070000
C        0.06790000      -0.04190000       2.52760000
C       -0.45820000       0.34110000       3.53750000
H        0.71150000       1.73080000       0.05980000
H       -1.07440000      -0.43060000       0.07090000
H        1.66750000      -0.26670000      -1.28110000
H        0.70290000      -1.73310000      -1.14590000
H       -1.08660000      -0.75970000      -2.58520000
H       -0.27940000       0.82070000      -2.50970000
H        1.70600000      -0.15110000      -3.77750000
H        0.75590000      -1.60890000       1.31130000
H        1.73530000      -0.15580000       1.25220000
H       -0.92320000       0.68220000       4.42890000
