16
Properties=species:S:1:pos:R:3 gdb_9700=T pbc="F F F"
O       -0.08730000       1.40260000       0.00870000
C       -0.00810000      -0.02600000       0.01270000
C        0.58460000      -0.53380000       1.36950000
C       -0.63790000      -0.81160000       2.20510000
C       -1.75250000      -0.80720000       1.47830000
C       -1.48560000      -0.51830000       0.02410000
C        0.75940000      -0.49250000      -1.14490000
C        1.41850000      -0.84720000      -2.08620000
H        0.81020000       1.74240000      -0.07830000
H        1.19020000      -1.43760000       1.22770000
H        1.24460000       0.23070000       1.79590000
H       -0.58060000      -1.01360000       3.26860000
H       -2.74930000      -1.00790000       1.85430000
H       -2.12250000       0.26520000      -0.39760000
H       -1.61230000      -1.41300000      -0.59660000
H        1.99000000      -1.16560000      -2.92290000
