19
Properties=species:S:1:pos:R:3 gdb_106285=T pbc="F F F"
C        0.03800000       1.32080000       0.02840000
O        0.07070000      -0.09070000      -0.07230000
C        0.68940000      -0.56880000      -1.19710000
C        0.27450000      -0.38190000      -2.69360000
C        1.51500000      -1.32830000      -2.69460000
O        2.10830000      -1.96450000      -3.76190000
C        2.17790000      -0.36400000      -1.65230000
C        0.84000000      -2.08470000      -1.51480000
O        1.55090000      -2.94990000      -0.68420000
H        1.05040000       1.74800000       0.05030000
H       -0.51640000       1.77320000      -0.80570000
H       -0.46950000       1.56050000       0.96490000
H       -0.67940000      -0.81790000      -3.00070000
H        0.43260000       0.61100000      -3.12070000
H        2.44670000      -1.29940000      -4.37110000
H        2.44790000       0.63010000      -2.01900000
H        2.97190000      -0.76210000      -1.01410000
H       -0.09170000      -2.59810000      -1.76500000
H        2.39600000      -2.55410000      -0.44890000
