20
Properties=species:S:1:pos:R:3 gdb_75177=T pbc="F F F"
C       -0.00640000       1.54070000       0.05360000
C       -0.01460000       0.03850000      -0.02540000
C       -0.04520000      -0.61560000      -1.18920000
C       -0.01960000      -2.11390000      -1.33660000
C        0.41970000      -2.80460000      -0.02670000
C       -0.32100000      -2.18360000       1.17640000
C        0.02330000      -0.69470000       1.29730000
C        0.21510000      -4.25180000      -0.09700000
N        0.04220000      -5.39350000      -0.15230000
H        0.87430000       1.90220000       0.60030000
H       -0.00130000       1.99920000      -0.93860000
H       -0.88310000       1.91340000       0.59890000
H       -0.08790000      -0.04830000      -2.11650000
H       -1.00990000      -2.48800000      -1.63130000
H        0.65840000      -2.40250000      -2.14810000
H        1.49600000      -2.63450000       0.10860000
H       -1.39900000      -2.30880000       1.02410000
H       -0.06350000      -2.71540000       2.09660000
H        1.01880000      -0.57200000       1.75020000
H       -0.67190000      -0.21690000       1.99960000
