18
Properties=species:S:1:pos:R:3 gdb_81570=T pbc="F F F"
C        0.04680000       1.72110000       0.09500000
C       -0.02550000       0.20960000      -0.00780000
C        1.14540000      -0.54860000      -0.69330000
O        2.02440000      -0.20840000       0.44610000
C        0.73510000      -0.65210000       1.04140000
C        0.76810000      -1.86080000       0.06970000
C       -0.46600000      -2.68520000      -0.26000000
N       -0.17200000      -3.90260000      -0.80370000
O       -1.61480000      -2.32840000      -0.06780000
H        1.05630000       2.04880000       0.35120000
H       -0.24210000       2.18640000      -0.85370000
H       -0.64570000       2.08770000       0.86030000
H       -1.02130000      -0.16070000      -0.24860000
H        1.56170000      -0.44820000      -1.69710000
H        0.66100000      -0.66290000       2.12920000
H        1.65170000      -2.48340000       0.22810000
H        0.76920000      -4.20410000      -0.98210000
H       -0.93590000      -4.49810000      -1.07920000
