16
Properties=species:S:1:pos:R:3 gdb_28973=T pbc="F F F"
N       -0.00860000       1.39080000       0.14220000
C        0.00120000       0.01090000       0.04770000
C       -1.19470000      -0.72060000       0.03550000
C       -1.18110000      -2.10740000      -0.00280000
C        0.02590000      -2.80830000      -0.03000000
C        1.21780000      -2.09920000      -0.02250000
C        1.22970000      -0.69690000       0.01180000
C        2.45450000       0.02580000       0.00450000
C        3.47230000       0.67320000      -0.01180000
H        0.85000000       1.85010000      -0.12490000
H       -0.83880000       1.85350000      -0.19370000
H       -2.13870000      -0.18440000       0.06220000
H       -2.12270000      -2.64700000      -0.01170000
H        0.03480000      -3.89160000      -0.05810000
H        2.16870000      -2.61960000      -0.04910000
H        4.38220000       1.22040000      -0.01310000
