20
Properties=species:S:1:pos:R:3 gdb_51659=T pbc="F F F"
N       -0.17930000       1.30200000       0.19110000
C       -0.08260000       0.05000000       0.06160000
O       -1.18890000      -0.71420000       0.01710000
C       -1.03170000      -2.12540000       0.00630000
C       -1.35070000      -2.88720000       1.32280000
C       -2.27990000      -3.85060000       0.52490000
C       -3.78190000      -3.50130000       0.61920000
C       -3.58650000      -2.40020000      -0.46730000
C       -2.13560000      -2.90290000      -0.72770000
H        0.74770000       1.72230000       0.18280000
H        0.84940000      -0.52570000      -0.03600000
H       -0.03690000      -2.38150000      -0.37910000
H       -0.48860000      -3.34300000       1.81490000
H       -1.88220000      -2.26930000       2.05170000
H       -1.98660000      -4.90030000       0.51730000
H       -4.42210000      -4.31630000       0.27030000
H       -4.14320000      -3.17770000       1.60000000
H       -4.25030000      -2.48760000      -1.32940000
H       -3.63250000      -1.37150000      -0.10560000
H       -1.91610000      -3.24910000      -1.73830000
