22
Properties=species:S:1:pos:R:3 gdb_62829=T pbc="F F F"
C       -0.05730000       1.49610000      -0.26510000
C        0.02710000      -0.01430000       0.00550000
C       -1.32910000      -0.61490000      -0.39640000
C        1.26860000      -0.83020000      -0.44240000
C        2.16290000      -0.02900000       0.58850000
C        0.85160000      -0.48930000       1.29760000
C        0.15250000      -1.11850000       2.51560000
C       -0.03320000      -2.36220000       1.56590000
N        1.12710000      -1.83820000       0.72300000
H        0.75590000       2.08140000       0.16390000
H       -0.08250000       1.69490000      -1.34340000
H       -0.99170000       1.88910000       0.15210000
H       -1.68520000      -0.10240000      -1.29750000
H       -1.27970000      -1.67610000      -0.63820000
H       -2.09370000      -0.46430000       0.37460000
H        1.55220000      -1.13300000      -1.45560000
H        3.04440000      -0.57260000       0.92410000
H        2.36850000       1.01880000       0.37660000
H        0.82940000      -1.32900000       3.34650000
H       -0.74860000      -0.62520000       2.88690000
H        0.24160000      -3.33330000       1.98350000
H       -1.03520000      -2.43450000       1.14310000
