19
Properties=species:S:1:pos:R:3 gdb_45557=T pbc="F F F"
O       -0.01720000      -0.04960000      -0.06290000
C       -0.07320000       1.14300000       0.01340000
C       -1.31540000       2.02780000       0.09620000
C       -0.77930000       3.39670000       0.51010000
C       -0.76120000       3.69130000       2.02280000
C        0.45750000       4.61090000       2.19830000
C        1.52050000       3.99670000       1.26180000
C        0.72420000       3.32820000       0.12080000
O        1.04160000       1.92390000       0.02800000
H       -1.78420000       2.03960000      -0.89380000
H       -2.03610000       1.59040000       0.79030000
H       -1.27300000       4.21590000      -0.01920000
H       -1.69690000       4.13230000       2.37690000
H       -0.60820000       2.75890000       2.58160000
H        0.20500000       5.62670000       1.87080000
H        0.79840000       4.68240000       3.23440000
H        2.23820000       4.73300000       0.89260000
H        2.08880000       3.21600000       1.77540000
H        0.93400000       3.76970000      -0.85790000
