18
Properties=species:S:1:pos:R:3 gdb_64030=T pbc="F F F"
C        0.07930000       1.49240000      -0.21970000
C       -0.03310000      -0.02530000      -0.02110000
C       -1.49180000      -0.46590000       0.09330000
N        0.67060000      -0.74110000      -1.11300000
C        1.92730000      -1.06150000      -0.64490000
N        2.13360000      -0.99300000       0.61570000
C        0.84160000      -0.55470000       1.18470000
C        1.01330000       0.41510000       2.26870000
N        1.11080000       1.18330000       3.12610000
H        1.12600000       1.80660000      -0.26600000
H       -0.41490000       1.78610000      -1.15220000
H       -0.39960000       2.03300000       0.60070000
H       -2.06910000      -0.14130000      -0.77860000
H       -1.56380000      -1.55440000       0.16340000
H       -1.95490000      -0.02490000       0.98170000
H        0.59250000      -0.36120000      -2.04680000
H        2.68600000      -1.39980000      -1.34520000
H        0.34580000      -1.43440000       1.61950000
