19
Properties=species:S:1:pos:R:3 gdb_126521=T pbc="F F F"
C       -0.01530000       1.61780000      -0.00500000
C        0.00690000       0.08790000      -0.02080000
C       -1.40100000      -0.53570000       0.05470000
C       -1.41130000      -2.03480000       0.02800000
C       -1.42530000      -2.90010000       1.10750000
O       -1.46640000      -2.71130000       2.44600000
N       -1.39890000      -4.16150000       0.62590000
N       -1.36840000      -4.19810000      -0.73210000
C       -1.37420000      -2.91860000      -1.08110000
H        0.99580000       2.03240000      -0.06200000
H       -0.58600000       2.01430000      -0.85230000
H       -0.48020000       2.00050000       0.91110000
H        0.50180000      -0.27070000      -0.93110000
H        0.61040000      -0.28750000       0.81540000
H       -1.90220000      -0.17080000       0.96490000
H       -2.00580000      -0.15040000      -0.77600000
H       -1.50220000      -1.76480000       2.61920000
H       -1.41350000      -5.01520000       1.15690000
H       -1.35730000      -2.65350000      -2.12950000
