21
Properties=species:S:1:pos:R:3 gdb_15834=T pbc="F F F"
C        0.12500000       1.25100000      -0.52070000
C        0.02720000      -0.11040000       0.14730000
O       -1.14970000      -0.74900000      -0.31280000
C       -1.32290000      -2.09460000       0.10930000
C       -1.80620000      -2.19090000       1.55960000
C       -2.30820000      -2.75020000      -0.84470000
C       -3.43510000      -1.98280000      -1.42490000
N       -2.29970000      -2.40880000      -2.27050000
H        1.02260000       1.77670000      -0.18170000
H        0.17460000       1.14510000      -1.60820000
H       -0.74800000       1.86240000      -0.27530000
H        0.90820000      -0.72660000      -0.09670000
H        0.00600000       0.00560000       1.24160000
H       -0.35610000      -2.62030000       0.01770000
H       -1.07260000      -1.77800000       2.25780000
H       -2.74760000      -1.64700000       1.67980000
H       -1.97300000      -3.23720000       1.83540000
H       -2.45010000      -3.81080000      -0.64470000
H       -4.37840000      -2.47770000      -1.63760000
H       -3.50940000      -0.93070000      -1.16890000
H       -1.68600000      -1.60350000      -2.38390000
