23
Properties=species:S:1:pos:R:3 gdb_93695=T pbc="F F F"
C        0.06660000       1.52840000       0.09510000
C        0.05490000       0.01100000      -0.00300000
C        0.70030000      -0.52310000      -1.28750000
C        0.82220000      -2.05390000      -1.25330000
C        1.48580000      -2.52370000       0.05900000
C        1.53920000      -4.04300000       0.15800000
O        2.83500000      -2.05450000       0.12000000
C        0.71000000      -1.90570000       1.23140000
O        0.74840000      -0.48800000       1.14670000
H        1.09380000       1.90560000       0.06230000
H       -0.49020000       1.97110000      -0.73610000
H       -0.38820000       1.85500000       1.03400000
H       -0.98790000      -0.35080000       0.04540000
H        0.11470000      -0.20090000      -2.15570000
H        1.69760000      -0.07820000      -1.39160000
H       -0.17420000      -2.50840000      -1.33400000
H        1.41280000      -2.41180000      -2.10270000
H        2.13390000      -4.45030000      -0.66510000
H        2.01000000      -4.34810000       1.09720000
H        0.53690000      -4.47970000       0.10760000
H        2.78780000      -1.14410000       0.43780000
H       -0.33200000      -2.26440000       1.24370000
H        1.18450000      -2.17090000       2.18110000
