23
Properties=species:S:1:pos:R:3 gdb_81480=T pbc="F F F"
C       -0.07210000       1.62400000       0.11040000
C        0.00700000       0.10030000       0.08880000
C        1.02330000      -0.55270000      -0.90290000
C        2.11210000      -0.28850000       0.18710000
C        0.92100000      -0.58720000       1.15420000
C        0.73110000      -2.09160000       0.87640000
C       -0.70010000      -2.69770000       0.78800000
C       -0.62260000      -2.67160000      -0.77010000
C        0.80930000      -2.06530000      -0.69570000
H        0.90400000       2.11270000       0.16740000
H       -0.57160000       1.99360000      -0.79230000
H       -0.65960000       1.96400000       0.97080000
H       -1.01600000      -0.28160000       0.03150000
H        1.12830000      -0.18850000      -1.92690000
H        2.96840000      -0.96960000       0.21830000
H        2.46510000       0.74160000       0.22190000
H        0.92320000      -0.25750000       2.19520000
H        1.46100000      -2.70220000       1.41300000
H       -0.77080000      -3.70500000       1.20580000
H       -1.49520000      -2.09410000       1.23510000
H       -0.64980000      -3.66430000      -1.22630000
H       -1.37040000      -2.05200000      -1.27360000
H        1.58990000      -2.65880000      -1.17740000
