14
Properties=species:S:1:pos:R:3 gdb_1213=T pbc="F F F"
N       -0.05700000       1.34660000      -0.05600000
C        0.07260000      -0.00860000       0.04270000
O        1.15470000      -0.55560000       0.13240000
C       -1.24860000      -0.77600000       0.02780000
C       -1.01970000      -2.29460000      -0.03400000
C       -2.26910000      -3.04390000      -0.00280000
C       -3.31340000      -3.63880000       0.02420000
H        0.77360000       1.91130000       0.01060000
H       -0.95240000       1.80220000      -0.06960000
H       -1.81720000      -0.51970000       0.93000000
H       -1.85840000      -0.44650000      -0.82110000
H       -0.45560000      -2.53830000      -0.94100000
H       -0.37420000      -2.59070000       0.79920000
H       -4.22520000      -4.18200000       0.04800000
