12
Properties=species:S:1:pos:R:3 gdb_21686=T pbc="F F F"
N        0.07750000       1.34560000       0.14820000
C        0.03610000      -0.02230000       0.04400000
N       -1.09130000      -0.69660000       0.02490000
O       -0.71030000      -2.05170000      -0.01420000
C        0.61660000      -2.13290000      -0.02840000
C        1.18570000      -0.89360000       0.00470000
C        2.54030000      -0.50760000      -0.00340000
C        3.68260000      -0.12470000      -0.01820000
H        0.90770000       1.77410000      -0.23280000
H       -0.77850000       1.81630000      -0.10580000
H        1.04050000      -3.12470000      -0.06300000
H        4.69540000       0.19450000      -0.02060000
