17
Properties=species:S:1:pos:R:3 gdb_41672=T pbc="F F F"
C       -0.03450000       1.40670000      -0.05520000
O        1.22480000       2.04290000       0.04050000
C        2.07650000       1.57670000      -0.96160000
C        3.24100000       0.64570000      -0.63610000
C        3.28990000       0.04840000       0.72610000
C        2.19750000      -0.66880000       0.98250000
C        1.21340000      -0.63620000      -0.17530000
O        0.00670000       0.03730000       0.25280000
C        1.97380000       0.11310000      -1.28280000
H       -0.68910000       1.88160000       0.67930000
H       -0.43570000       1.55600000      -1.07190000
H        2.23410000       2.28590000      -1.77240000
H        4.14760000       0.79200000      -1.21190000
H        4.10150000       0.24060000       1.41790000
H        1.94000000      -1.13920000       1.92360000
H        0.88520000      -1.63010000      -0.49320000
H        1.93210000      -0.23940000      -2.30520000
