16
Properties=species:S:1:pos:R:3 gdb_30967=T pbc="F F F"
C        0.23480000       1.23520000      -0.32450000
N       -0.39600000       0.13120000       0.41490000
C        0.46000000      -0.65630000       1.18270000
C        0.87340000      -1.92360000       1.07300000
O        0.71180000      -2.83540000       0.09820000
O        1.67530000      -2.26790000       2.16140000
C        1.75550000      -1.15930000       2.98630000
N        2.32520000      -1.08880000       4.11490000
N        1.08650000      -0.13710000       2.33680000
H        0.97970000       0.89820000      -1.06000000
H       -0.54320000       1.80510000      -0.83830000
H        0.73420000       1.90410000       0.38090000
H       -0.93110000      -0.46060000      -0.20850000
H        0.33140000      -3.64180000       0.47160000
H        2.74260000      -1.98210000       4.36200000
H        0.69810000       0.62290000       2.87090000
