18
Properties=species:S:1:pos:R:3 gdb_111375=T pbc="F F F"
C        0.06570000       1.32760000      -0.08490000
O       -0.29890000      -0.00170000       0.23340000
C        0.54480000      -0.60470000       1.15310000
C        0.13130000      -1.99700000       1.60380000
N        0.24300000      -2.89630000       0.43140000
C        1.44920000      -2.57200000       1.21250000
C        1.95890000      -1.21800000       0.68370000
C        2.33950000      -1.13140000      -0.70940000
C        2.67700000      -1.04470000      -1.86050000
H        1.05490000       1.37490000      -0.55760000
H       -0.68140000       1.70420000      -0.78680000
H        0.06830000       1.96800000       0.81150000
H        0.72530000       0.05210000       2.01800000
H       -0.51900000      -2.24200000       2.43410000
H       -0.07690000      -3.81550000       0.73540000
H        2.04160000      -3.33820000       1.69550000
H        2.75320000      -0.81780000       1.32120000
H        2.95820000      -0.98330000      -2.88240000
