19
Properties=species:S:1:pos:R:3 gdb_53391=T pbc="F F F"
C        0.01370000       1.45400000      -0.25420000
C        0.02650000       0.00340000      -0.13120000
C        0.04500000      -1.19680000      -0.02680000
C        0.04930000      -2.63880000       0.09990000
C        0.08410000      -3.26830000       1.52310000
O       -1.08290000      -4.06930000       1.24420000
C       -1.28550000      -3.40010000       0.00100000
C       -2.61960000      -2.89730000      -0.43020000
C       -1.94180000      -4.05100000      -1.16490000
H        0.90880000       1.89780000       0.19560000
H       -0.01620000       1.76440000      -1.30450000
H       -0.85860000       1.88950000       0.24550000
H        0.81000000      -3.08210000      -0.55100000
H        0.95820000      -3.88400000       1.75700000
H       -0.09360000      -2.54830000       2.32950000
H       -3.46620000      -3.13950000       0.20300000
H       -2.66610000      -1.92650000      -0.91290000
H       -1.53700000      -3.87260000      -2.15630000
H       -2.34470000      -5.04630000      -1.00990000
