16
Properties=species:S:1:pos:R:3 gdb_123348=T pbc="F F F"
C       -0.01090000      -1.22730000      -0.02210000
C       -0.02590000      -0.02840000       0.06300000
C       -0.00510000       1.42520000       0.15900000
C        1.39170000       2.02210000      -0.15110000
C        1.40810000       3.51410000      -0.04190000
N        0.83900000       4.30070000      -0.96290000
N        1.04690000       5.52330000      -0.49360000
N        1.70410000       5.61930000       0.65200000
C        1.94350000       4.34420000       0.96140000
H       -0.01400000      -2.28640000      -0.09560000
H       -0.73440000       1.85800000      -0.53550000
H       -0.31640000       1.73550000       1.16420000
H        2.12580000       1.59690000       0.53920000
H        1.68640000       1.71980000      -1.16030000
H        0.73160000       6.34020000      -0.99140000
H        2.47800000       4.08250000       1.86090000
