21
Properties=species:S:1:pos:R:3 gdb_91077=T pbc="F F F"
C       -0.06210000       1.54650000       0.19230000
C       -0.00410000       0.03750000       0.01400000
C        1.09210000      -0.60030000      -0.92650000
C        1.26470000      -1.77470000       0.10920000
C        2.52680000      -2.23880000       0.81460000
C        3.54430000      -1.24090000       1.30220000
C        2.44120000      -1.67950000       2.24740000
C        1.26770000      -0.74370000       2.25520000
C        0.61890000      -0.82790000       1.09100000
H        0.91830000       1.94150000       0.47860000
H       -0.37280000       2.04240000      -0.73370000
H       -0.77690000       1.82520000       0.97420000
H       -0.98760000      -0.34830000      -0.28410000
H        0.77690000      -0.87340000      -1.93650000
H        1.98140000       0.03350000      -0.97680000
H        0.63260000      -2.62180000      -0.18200000
H        2.87090000      -3.25410000       0.65710000
H        4.54270000      -1.62610000       1.48390000
H        3.51880000      -0.22100000       0.93170000
H        2.70520000      -2.27370000       3.11620000
H        1.11940000      -0.00060000       3.03090000
