22
Properties=species:S:1:pos:R:3 gdb_94203=T pbc="F F F"
C        0.30050000       1.47780000      -0.46490000
C        0.61960000       0.02440000      -0.18770000
O        2.00450000      -0.30540000      -0.45540000
C        2.07540000      -1.12060000       0.72960000
C        0.73920000      -0.54810000       1.26180000
C        0.93780000       0.51100000       2.34700000
N       -0.25020000      -1.59390000       1.51450000
C       -0.29820000      -2.27570000       2.80250000
C       -1.39890000      -1.36360000       2.38290000
H        0.93510000       2.15460000       0.11270000
H        0.46070000       1.69010000      -1.52690000
H       -0.74860000       1.69250000      -0.23420000
H       -0.04610000      -0.62640000      -0.77160000
H        2.01600000      -2.19220000       0.50090000
H        2.97780000      -0.91530000       1.31720000
H        1.76020000       1.17600000       2.07060000
H        0.04740000       1.13070000       2.48980000
H        1.19920000       0.05790000       3.30890000
H       -0.42080000      -3.35420000       2.75220000
H        0.34450000      -1.93280000       3.61060000
H       -1.48290000      -0.41980000       2.91560000
H       -2.34240000      -1.76330000       2.02120000
