21
Properties=species:S:1:pos:R:3 gdb_106819=T pbc="F F F"
C       -0.40740000       1.14490000       0.03830000
O        0.26520000      -0.09860000      -0.06190000
C        0.83770000      -0.55240000       1.12490000
C       -0.07250000      -1.15210000       2.18630000
C        0.81380000      -2.04110000       1.32730000
O        0.22620000      -2.87250000       0.37870000
C        2.15570000      -2.46930000       1.88850000
C        2.77760000      -1.15970000       2.43400000
C        2.19390000      -0.02030000       1.55960000
H        0.28520000       1.95840000       0.29260000
H       -0.84890000       1.34950000      -0.93970000
H       -1.20250000       1.11160000       0.79530000
H        0.13500000      -0.99490000       3.24050000
H       -1.12550000      -1.19500000       1.92980000
H       -0.07500000      -2.29580000      -0.33660000
H        2.08300000      -3.24840000       2.65380000
H        2.74960000      -2.87310000       1.06070000
H        2.49050000      -1.01240000       3.47990000
H        3.86980000      -1.17910000       2.40880000
H        2.80020000       0.13310000       0.65880000
H        2.15240000       0.93260000       2.09820000
