20
Properties=species:S:1:pos:R:3 gdb_89804=T pbc="F F F"
C        0.22280000       1.55770000      -0.10590000
C        0.06120000       0.05320000       0.03870000
O        0.64730000      -0.57640000      -1.11140000
C        1.17990000      -1.82890000      -0.74740000
C        0.61830000      -3.07830000      -1.37890000
C        1.98530000      -2.54350000      -1.77830000
C        1.48580000      -1.76550000       0.71650000
N        2.24200000      -0.54580000       1.08790000
C        0.77120000      -0.57730000       1.22810000
H        1.28400000       1.81670000      -0.09130000
H       -0.21200000       1.89720000      -1.04990000
H       -0.28500000       2.07790000       0.71280000
H       -1.00780000      -0.21120000       0.10210000
H        0.56560000      -3.99050000      -0.79250000
H       -0.19250000      -2.94130000      -2.08550000
H        2.06910000      -2.06390000      -2.74700000
H        2.87120000      -3.08180000      -1.45970000
H        1.60600000      -2.67840000       1.28950000
H        2.66150000      -0.68820000       2.00410000
H        0.31380000      -0.54070000       2.21110000
