15
Properties=species:S:1:pos:R:3 gdb_16657=T pbc="F F F"
O        0.17390000       1.32470000       0.27140000
C       -0.02990000      -0.07050000       0.05970000
C       -1.51730000      -0.37500000      -0.14540000
N       -1.78940000      -0.53870000      -1.60080000
C       -1.35560000       0.60570000      -2.38430000
C       -0.48100000      -0.61290000      -2.28660000
C        0.61730000      -0.49410000      -1.28460000
O        1.79640000      -0.68480000      -1.45280000
H        1.12590000       1.48130000       0.25540000
H        0.40470000      -0.65850000       0.87800000
H       -1.77730000      -1.32110000       0.33770000
H       -2.15100000       0.41290000       0.26880000
H       -1.89490000       0.76170000      -3.31400000
H       -1.03660000       1.50520000      -1.86580000
H       -0.36400000      -1.28310000      -3.13060000
