16
Properties=species:S:1:pos:R:3 gdb_67548=T pbc="F F F"
O       -0.05600000       1.44660000       0.05480000
C        0.01180000       0.07010000      -0.03210000
C        1.19170000      -0.64420000       0.70180000
N        0.96510000      -2.10550000       0.64620000
C        1.55600000      -1.41390000      -0.51920000
C        0.37880000      -0.77040000      -1.31500000
N       -0.95230000      -1.38060000      -1.22000000
C       -1.30660000      -0.70530000      -0.03260000
N       -2.30050000      -0.69290000       0.74240000
H        0.83940000       1.80330000       0.06070000
H        1.80170000      -0.20200000       1.48180000
H        1.72650000      -2.54790000       1.16000000
H        2.52650000      -1.69720000      -0.90830000
H        0.62940000      -0.31610000      -2.27390000
H       -1.12340000      -2.36990000      -1.34570000
H       -3.01060000      -1.37000000       0.45630000
