20
Properties=species:S:1:pos:R:3 gdb_70687=T pbc="F F F"
C        0.03910000       1.54890000       0.02040000
C        0.07250000       0.03620000      -0.01290000
C       -0.85200000      -0.73120000       0.93390000
C        0.62450000      -0.74870000       1.17760000
C        1.42990000      -2.03330000       0.92740000
N        1.83080000      -2.27410000      -0.45910000
C        0.73390000      -2.02880000      -1.39950000
C        0.27110000      -0.56990000      -1.36700000
O        0.14860000       0.08290000      -2.38330000
H        0.98470000       1.97200000      -0.33320000
H       -0.75160000       1.93070000      -0.63080000
H       -0.14000000       1.91070000       1.03730000
H       -1.48580000      -0.12750000       1.57480000
H       -1.32250000      -1.64070000       0.57450000
H        0.97610000      -0.13120000       1.99960000
H        2.33730000      -2.01810000       1.53810000
H        0.84230000      -2.89910000       1.26070000
H        2.60410000      -1.65950000      -0.69690000
H        1.04970000      -2.25440000      -2.42100000
H       -0.09330000      -2.70710000      -1.15040000
