15
Properties=species:S:1:pos:R:3 gdb_31375=T pbc="F F F"
C        0.04930000       1.37710000       0.00720000
O       -0.04350000      -0.05400000       0.00390000
C       -1.26780000      -0.55750000       0.01130000
N       -2.33370000       0.14150000       0.02070000
C       -3.58430000      -0.51430000       0.02750000
N       -4.70210000       0.10460000       0.03720000
C       -3.53190000      -1.97600000       0.02290000
C       -2.35150000      -2.59280000       0.01280000
O       -1.16150000      -1.90750000       0.00650000
H        1.11710000       1.59380000      -0.00020000
H       -0.43780000       1.79380000      -0.87730000
H       -0.42460000       1.78890000       0.90100000
H       -4.52220000       1.11110000       0.03890000
H       -4.45530000      -2.53860000       0.02770000
H       -2.18090000      -3.66040000       0.00840000
