27
Properties=species:S:1:pos:R:3 gdb_100307=T pbc="F F F"
C        0.04790000       1.42680000       0.23780000
C        0.14430000      -0.08460000      -0.00010000
C        0.70010000      -0.54600000      -1.37560000
C        0.67040000      -2.08580000      -1.39600000
C       -0.14020000       0.00640000      -2.56000000
C       -1.62950000      -0.35760000      -2.58300000
C        2.12290000       0.00270000      -1.55220000
C        3.33410000      -0.54050000      -0.83650000
C        3.21230000      -0.68910000      -2.33460000
H        1.02500000       1.91490000       0.17540000
H       -0.61680000       1.91610000      -0.48140000
H       -0.35160000       1.62710000       1.23720000
H        0.78070000      -0.52370000       0.77850000
H       -0.84870000      -0.52760000       0.14360000
H       -0.33500000      -2.45570000      -1.17520000
H        0.95950000      -2.48610000      -2.37260000
H        1.33800000      -2.51490000      -0.64210000
H       -0.04630000       1.09900000      -2.57720000
H        0.32760000      -0.34270000      -3.48920000
H       -2.11470000       0.09080000      -3.45600000
H       -1.78980000      -1.43840000      -2.64260000
H       -2.15560000       0.00770000      -1.69520000
H        2.13080000       1.08380000      -1.66630000
H        4.05580000       0.16570000      -0.44000000
H        3.22560000      -1.43700000      -0.23590000
H        3.02650000      -1.68430000      -2.72190000
H        3.85050000      -0.08400000      -2.96940000
