13
Properties=species:S:1:pos:R:3 gdb_20438=T pbc="F F F"
C        0.05890000       1.38030000      -0.10670000
C        1.55390000       1.80190000       0.07790000
N        2.04040000       0.58980000       0.69110000
N        3.23580000       0.13260000       1.16480000
C        2.94580000      -1.14660000       1.35780000
N        1.67230000      -1.55380000       1.02440000
C        1.16870000      -0.42230000       0.60300000
O       -0.00730000      -0.06520000       0.06610000
H       -0.57800000       1.83740000       0.65560000
H       -0.33260000       1.61550000      -1.09650000
H        2.06090000       2.00390000      -0.87200000
H        1.65680000       2.67420000       0.72750000
H        3.67730000      -1.82980000       1.76320000
