18
Properties=species:S:1:pos:R:3 gdb_35035=T pbc="F F F"
N       -0.06960000      -1.15440000      -0.11010000
C       -0.03710000      -0.00080000      -0.03780000
C        0.01090000       1.44950000       0.04750000
C       -0.32990000       2.05410000       1.44180000
C        0.80460000       1.48970000       2.32810000
C        2.04180000       1.53190000       1.37270000
C        1.43050000       2.08380000       0.07270000
O        1.12450000       3.46620000       0.24910000
C       -0.00860000       3.52590000       1.14030000
H       -0.59300000       1.88020000      -0.75590000
H       -1.34140000       1.87960000       1.80800000
H        0.94330000       2.09290000       3.22870000
H        0.58030000       0.46790000       2.64320000
H        2.83060000       2.20060000       1.72250000
H        2.47530000       0.53980000       1.22170000
H        2.03330000       1.97420000      -0.82830000
H       -0.83290000       4.04680000       0.63720000
H        0.25570000       4.08550000       2.04530000
