20
Properties=species:S:1:pos:R:3 gdb_36399=T pbc="F F F"
N        0.00750000      -1.14880000      -0.19550000
C        0.00060000      -0.00440000      -0.03430000
C        0.02330000       1.44410000       0.16640000
C        1.44250000       2.02090000       0.12220000
C        2.20190000       2.01990000      -1.23750000
C        2.63410000       3.46130000      -0.93480000
C        4.05310000       3.94200000      -0.83730000
C        3.11740000       4.51760000      -1.87860000
C        1.58180000       3.57130000       0.17710000
H       -0.59720000       1.91170000      -0.60780000
H       -0.45060000       1.66940000       1.12950000
H        2.04840000       1.54990000       0.90060000
H        2.98670000       1.27070000      -1.36560000
H        1.51630000       1.95600000      -2.09020000
H        4.32600000       4.56940000       0.00570000
H        4.84330000       3.27750000      -1.17270000
H        3.27630000       4.24240000      -2.91660000
H        2.75960000       5.53280000      -1.73780000
H        0.66870000       4.07830000      -0.15700000
H        1.89390000       4.00740000       1.12990000
