23
Properties=species:S:1:pos:R:3 gdb_112566=T pbc="F F F"
C        0.02530000       1.56550000      -0.02370000
C       -0.01250000       0.02930000       0.01280000
C       -1.47980000      -0.44760000       0.05340000
C        0.75860000      -0.60550000      -1.18640000
C        1.55160000      -1.81130000      -0.61990000
C        2.93830000      -1.96000000      -1.24080000
O        3.54880000      -3.11410000      -0.68040000
C        1.57380000      -1.52690000       0.86520000
C        0.75040000      -0.53670000       1.19820000
H        1.05580000       1.93490000      -0.01320000
H       -0.46320000       1.94900000      -0.92700000
H       -0.49470000       1.99500000       0.84020000
H       -2.04200000      -0.05480000      -0.80180000
H       -1.54110000      -1.54010000       0.03030000
H       -1.97940000      -0.10550000       0.96660000
H        0.09030000      -0.88760000      -2.00530000
H        1.46480000       0.13040000      -1.59080000
H        1.02450000      -2.75810000      -0.80730000
H        2.84590000      -2.05040000      -2.33570000
H        3.52910000      -1.05320000      -1.03160000
H        4.44250000      -3.18230000      -1.02810000
H        2.18790000      -2.10370000       1.54690000
H        0.57910000      -0.17370000       2.20750000
