21
Properties=species:S:1:pos:R:3 gdb_119315=T pbc="F F F"
C        0.06380000       1.63570000       0.07280000
C       -0.01700000       0.11970000       0.02380000
O        0.79640000      -0.32070000      -1.06290000
C        0.76520000      -1.68490000      -1.34590000
C       -0.58390000      -2.31900000      -1.85160000
C        0.19170000      -2.97570000      -3.02300000
C        1.37930000      -2.02020000      -2.74170000
C        1.40760000      -2.54910000      -0.27700000
O        1.91160000      -2.14620000       0.73910000
H        1.09700000       1.95670000       0.23220000
H       -0.29100000       2.07370000      -0.86470000
H       -0.54970000       2.02190000       0.89240000
H        0.33620000      -0.31940000       0.96270000
H       -1.05790000      -0.20360000      -0.13400000
H       -1.13320000      -2.97280000      -1.16990000
H       -1.24670000      -1.52030000      -2.19240000
H        0.44090000      -4.02090000      -2.82210000
H       -0.26590000      -2.91820000      -4.01210000
H        1.34690000      -1.11530000      -3.35140000
H        2.39160000      -2.43060000      -2.76350000
H        1.38930000      -3.63970000      -0.51570000
