23
Properties=species:S:1:pos:R:3 gdb_115047=T pbc="F F F"
C       -0.01730000       1.65570000       0.10030000
C        0.04790000       0.12600000       0.03020000
C       -1.33810000      -0.53660000      -0.06030000
C       -2.09640000      -0.29370000      -1.35190000
C       -2.79460000      -1.36180000      -1.73160000
C       -2.62360000      -2.51460000      -0.77230000
C       -1.38310000      -2.09510000       0.06500000
C       -0.12910000      -2.78540000      -0.47560000
O       -0.30210000      -4.18750000      -0.29950000
H        0.98340000       2.08860000       0.19630000
H       -0.47610000       2.08520000      -0.79610000
H       -0.60720000       1.98530000       0.96300000
H        0.66320000      -0.17210000      -0.82750000
H        0.56240000      -0.24600000       0.92520000
H       -1.93470000      -0.11820000       0.76750000
H       -2.09310000       0.66380000      -1.86130000
H       -3.44370000      -1.41000000      -2.59950000
H       -3.51610000      -2.62810000      -0.14070000
H       -2.46880000      -3.48110000      -1.26110000
H       -1.48850000      -2.40020000       1.11090000
H        0.00590000      -2.53400000      -1.53960000
H        0.76260000      -2.43790000       0.06500000
H        0.45440000      -4.63280000      -0.69140000
