21
Properties=species:S:1:pos:R:3 gdb_38326=T pbc="F F F"
C       -0.12580000       1.53680000       0.04570000
C        1.40650000       1.27440000       0.13270000
C        1.06450000       0.13120000       1.13300000
C        0.04660000      -0.00850000      -0.03700000
C        1.23650000       0.23430000      -1.02570000
C        0.92700000       0.75220000      -2.46130000
C        1.81350000      -0.06910000      -3.35760000
C        2.55370000      -0.94310000      -2.68150000
C        2.30980000      -0.88070000      -1.19810000
H       -0.59920000       1.91840000       0.95450000
H       -0.50230000       2.05280000      -0.83860000
H        2.20120000       2.01920000       0.22560000
H        1.79900000      -0.66470000       1.26360000
H        0.64930000       0.44410000       2.09490000
H       -0.74250000      -0.75770000      -0.14160000
H       -0.13240000       0.62800000      -2.72360000
H        1.13690000       1.82540000      -2.56530000
H        1.82520000       0.06090000      -4.43460000
H        3.26260000      -1.63640000      -3.12170000
H        3.23360000      -0.65040000      -0.65010000
H        1.96420000      -1.84780000      -0.80840000
