23
Properties=species:S:1:pos:R:3 gdb_95208=T pbc="F F F"
C       -0.08610000       1.56740000      -0.07770000
C        0.05980000       0.04200000      -0.04790000
C        0.68640000      -0.50000000      -1.34370000
C        0.54400000      -2.02530000      -1.42800000
C        1.03170000      -2.70510000      -0.16980000
O        2.31120000      -2.28510000       0.31170000
C        1.15030000      -1.95910000       1.09460000
C        0.80230000      -0.47780000       1.21510000
C        2.06820000       0.31040000       1.59440000
H        0.87650000       2.06450000      -0.23500000
H       -0.74980000       1.87160000      -0.89380000
H       -0.51090000       1.95010000       0.85690000
H       -0.95590000      -0.37840000       0.00520000
H        0.19900000      -0.04010000      -2.21070000
H        1.74570000      -0.22450000      -1.39520000
H       -0.51050000      -2.29590000      -1.57610000
H        1.09240000      -2.42250000      -2.29090000
H        0.87220000      -3.78380000      -0.11970000
H        1.09910000      -2.52390000       2.02720000
H        0.10010000      -0.39150000       2.05530000
H        2.80920000       0.27820000       0.79140000
H        1.84010000       1.35480000       1.82060000
H        2.53430000      -0.12790000       2.48300000
