15
Properties=species:S:1:pos:R:3 gdb_93998=T pbc="F F F"
O        0.17060000       1.38470000       0.21700000
C       -0.07440000       0.03210000      -0.03530000
C       -1.51270000      -0.30460000      -0.44300000
O       -1.38670000      -1.54990000      -1.14680000
C       -0.22890000      -1.49700000      -1.94170000
C       -0.49510000      -1.03410000      -3.38100000
O       -1.56320000      -0.64720000      -3.76340000
C        0.69480000      -0.48470000      -1.25120000
O        1.76530000      -0.07800000      -1.62020000
H        1.05920000       1.57420000      -0.11640000
H        0.21010000      -0.60630000       0.82050000
H       -2.18810000      -0.47280000       0.39590000
H       -1.91820000       0.48380000      -1.08950000
H        0.24550000      -2.48640000      -1.98780000
H        0.40270000      -1.07550000      -4.03430000
