19
Properties=species:S:1:pos:R:3 gdb_91159=T pbc="F F F"
O        0.19810000       1.41020000      -0.11970000
C        0.02250000       0.02750000      -0.04960000
C        0.44120000      -0.77380000       1.22310000
C       -0.83470000      -1.66770000       1.01780000
C       -1.83810000      -1.74400000       2.13070000
C       -2.77890000      -0.80260000       2.01740000
C       -2.49980000       0.14410000       0.87140000
O       -2.10260000       1.43850000       1.39380000
C       -1.40510000      -0.59540000       0.04350000
H       -0.51100000       1.79750000       0.41470000
H        0.53370000      -0.39950000      -0.91970000
H        1.41630000      -1.26540000       1.20360000
H        0.36930000      -0.16760000       2.13090000
H       -0.60350000      -2.63620000       0.56850000
H       -1.78450000      -2.47580000       2.93060000
H       -3.60410000      -0.63930000       2.70240000
H       -3.37860000       0.36540000       0.25890000
H       -1.73200000       1.28740000       2.27080000
H       -1.83270000      -0.94860000      -0.89720000
