17
Properties=species:S:1:pos:R:3 gdb_65313=T pbc="F F F"
O       -0.11550000       1.36690000      -0.14900000
C       -0.05290000      -0.01210000      -0.02000000
C       -0.37050000      -0.63430000       1.35010000
C       -1.35370000      -0.75940000       0.25150000
C       -2.74270000      -0.17250000       0.06130000
C       -3.01720000      -1.50430000      -0.67460000
O       -1.68780000      -1.99940000      -0.35800000
C        0.97850000      -0.64880000      -0.85680000
O        1.67750000       0.01440000      -1.59520000
H        0.56350000       1.57650000      -0.81210000
H        0.19050000      -1.51920000       1.63570000
H       -0.57340000       0.07450000       2.14620000
H       -3.31210000      -0.02710000       0.98090000
H       -2.77590000       0.73510000      -0.54140000
H       -3.79160000      -2.14620000      -0.24430000
H       -3.16770000      -1.42160000      -1.75620000
H        1.07110000      -1.74790000      -0.78430000
