19
Properties=species:S:1:pos:R:3 gdb_32406=T pbc="F F F"
C        0.00550000       1.49540000       0.05840000
C        0.05310000       0.00750000      -0.04160000
C       -0.05250000      -0.83360000      -1.13260000
N       -0.29320000      -0.48140000      -2.48450000
C        0.03960000      -2.18040000      -0.66260000
C       -0.04500000      -3.41190000      -1.50360000
O       -0.08890000      -4.54830000      -0.65050000
C        0.19760000      -2.12180000       0.70120000
N        0.19440000      -0.80220000       1.06980000
H        0.75250000       1.87740000       0.76520000
H        0.22690000       1.95110000      -0.91240000
H       -0.97260000       1.87950000       0.37940000
H       -0.34520000       0.52290000      -2.60750000
H        0.43320000      -0.82930000      -3.10250000
H       -0.93930000      -3.35710000      -2.14730000
H        0.82230000      -3.47660000      -2.18650000
H       -0.12190000      -5.33230000      -1.20530000
H        0.29840000      -2.91550000       1.42130000
H        0.27690000      -0.46670000       2.01260000
