19
Properties=species:S:1:pos:R:3 gdb_82906=T pbc="F F F"
O       -0.01440000       1.43520000      -0.11060000
C        0.01800000       0.02640000       0.01840000
C        0.38410000      -0.53960000       1.42430000
C       -0.65530000       0.24540000       2.25330000
C       -1.81900000      -0.50390000       1.58270000
O       -1.53230000      -1.81710000       2.10190000
C       -0.31130000      -1.99870000       1.36990000
C       -0.93200000      -2.08240000      -0.04090000
C       -1.39040000      -0.60910000       0.02720000
H        0.88730000       1.76360000      -0.03190000
H        0.63510000      -0.39610000      -0.78350000
H        1.42950000      -0.51310000       1.73210000
H       -0.64440000       0.04120000       3.32410000
H       -0.60410000       1.31550000       2.06080000
H       -2.84650000      -0.21960000       1.80090000
H        0.25420000      -2.84170000       1.76340000
H       -0.24910000      -2.27370000      -0.87170000
H       -1.73220000      -2.82270000      -0.04480000
H       -2.10580000      -0.24350000      -0.70680000
