14
Properties=species:S:1:pos:R:3 gdb_5559=T pbc="F F F"
O        0.20330000       1.19390000      -0.51410000
C       -0.03790000       0.07790000       0.32770000
C       -1.39370000      -0.51080000       0.10670000
C       -2.11200000      -0.71340000      -1.03280000
O       -1.63650000      -0.42110000      -2.28440000
C       -3.36140000      -1.30220000      -0.65460000
C       -3.30600000      -1.41600000       0.69930000
O       -2.12650000      -0.94730000       1.17530000
H       -0.01990000       0.92530000      -1.41310000
H        0.74540000      -0.68770000       0.19520000
H        0.03330000       0.43050000       1.36170000
H       -2.37750000      -0.27180000      -2.87920000
H       -4.17640000      -1.59700000      -1.29770000
H       -3.99440000      -1.79430000       1.43660000
