21
Properties=species:S:1:pos:R:3 gdb_116832=T pbc="F F F"
C        0.00160000       1.59740000       0.01070000
C        0.01850000       0.06780000       0.00230000
C       -1.40400000      -0.53270000       0.01250000
C       -1.41490000      -1.98760000       0.00480000
C       -1.40100000      -3.19870000      -0.00190000
C       -1.38750000      -4.55900000      -0.00930000
C       -1.37460000      -5.77010000      -0.01590000
C       -1.38130000      -7.22590000      -0.02350000
C       -2.80110000      -7.82470000      -0.01320000
H        1.01790000       2.00230000       0.00320000
H       -0.52150000       1.99460000      -0.86640000
H       -0.50470000       1.98510000       0.90180000
H        0.55040000      -0.30010000      -0.88190000
H        0.56700000      -0.30960000       0.87220000
H       -1.94510000      -0.16710000       0.89640000
H       -1.96180000      -0.15760000      -0.85690000
H       -0.83780000      -7.58640000      -0.90700000
H       -0.82110000      -7.59570000       0.84550000
H       -2.75090000      -8.91750000      -0.01950000
H       -3.34900000      -7.50820000       0.87820000
H       -3.36580000      -7.49880000      -0.89060000
