21
Properties=species:S:1:pos:R:3 gdb_109874=T pbc="F F F"
C       -0.11270000       1.39710000       0.03260000
O        0.23260000       0.03840000      -0.12930000
C        0.71440000      -0.57540000       1.04190000
C       -0.30780000      -1.27720000       2.03200000
C       -1.79810000      -1.20680000       1.72080000
C        0.43510000      -2.59860000       1.78340000
C        0.42300000      -2.94750000       0.31070000
C        1.39250000      -1.91700000       0.81280000
O        2.76530000      -2.07620000       0.72630000
H        0.74840000       1.99390000       0.37170000
H       -0.43650000       1.76850000      -0.94300000
H       -0.93240000       1.53830000       0.75130000
H        1.38100000       0.10770000       1.58630000
H       -0.12750000      -0.92390000       3.05220000
H       -2.00680000      -1.43360000       0.67230000
H       -2.35380000      -1.92060000       2.33850000
H       -2.19930000      -0.20900000       1.92750000
H        0.66340000      -3.34240000       2.53660000
H        0.89320000      -3.89830000       0.08000000
H       -0.40800000      -2.68260000      -0.33550000
H        3.01080000      -2.04870000      -0.20490000
