14
Properties=species:S:1:pos:R:3 gdb_1853=T pbc="F F F"
C       -0.06320000       1.58940000       0.01630000
C        0.02050000       0.05630000       0.00210000
N        0.80590000      -0.46780000      -1.09620000
C        1.85300000      -1.27400000      -0.69960000
O        2.63680000      -1.85000000      -1.42380000
C        1.78830000      -1.26330000       0.79540000
C        0.75490000      -0.52020000       1.19110000
H        0.93790000       2.02650000       0.06140000
H       -0.56320000       1.95720000      -0.88510000
H       -0.63770000       1.93320000       0.88230000
H       -1.00420000      -0.34870000      -0.02370000
H        0.58260000      -0.33210000      -2.06760000
H        2.50230000      -1.80130000       1.40240000
H        0.44010000      -0.31280000       2.20620000
