18
Properties=species:S:1:pos:R:3 gdb_36817=T pbc="F F F"
C       -0.10950000      -1.15930000      -0.00310000
C       -0.05990000       0.04120000       0.00300000
C        0.03710000       1.49420000       0.01000000
C        1.49210000       1.97300000      -0.00210000
O        1.47520000       3.38640000       0.00580000
C        2.75930000       3.95960000      -0.00390000
C        2.56420000       5.48080000       0.00650000
C        3.83560000       6.19690000      -0.00240000
N        4.85150000       6.74690000      -0.00950000
H       -0.16840000      -2.21950000      -0.00830000
H       -0.47820000       1.91550000      -0.86130000
H       -0.46040000       1.90580000       0.89620000
H        2.02660000       1.58440000       0.87820000
H        2.00860000       1.59420000      -0.89730000
H        3.34220000       3.64660000       0.87630000
H        3.32430000       3.65660000      -0.89920000
H        1.97380000       5.77650000      -0.86690000
H        1.99160000       5.76670000       0.89500000
