17
Properties=species:S:1:pos:R:3 gdb_38075=T pbc="F F F"
C       -0.02400000       1.50400000       0.06590000
C        1.47540000       1.94150000      -0.03590000
C        2.15400000       0.70780000      -0.59650000
O        2.84730000       0.71630000      -1.85340000
C        3.50480000       0.12800000      -0.69750000
C        3.30920000      -1.36070000      -0.62520000
C        1.99860000      -1.66870000      -0.51510000
C        1.21770000      -0.44370000      -0.40770000
C        0.00670000      -0.01050000      -0.04250000
H       -0.49140000       1.83430000       1.00060000
H       -0.61990000       1.94570000      -0.74440000
H        1.62530000       2.80810000      -0.68300000
H        1.86320000       2.19230000       0.95620000
H        4.42670000       0.61250000      -0.39210000
H        4.12210000      -2.07430000      -0.67790000
H        1.58780000      -2.67050000      -0.48710000
H       -0.86000000      -0.62390000       0.17860000
