20
Properties=species:S:1:pos:R:3 gdb_104320=T pbc="F F F"
C        0.13590000       1.31100000       0.18400000
O        0.04430000      -0.08560000      -0.03780000
C        0.60310000      -0.56670000      -1.22550000
C       -0.14670000      -0.07560000      -2.46960000
O        1.97920000      -0.16690000      -1.30640000
C        2.80520000      -1.23360000      -1.76020000
C        2.01680000      -2.50360000      -1.51770000
N        1.54700000      -2.59430000      -0.12280000
C        0.64270000      -2.08710000      -1.16850000
H        1.17210000       1.65770000       0.11770000
H       -0.48230000       1.88900000      -0.51730000
H       -0.23790000       1.48360000       1.19580000
H       -0.00820000       0.99960000      -2.60210000
H        0.23910000      -0.57430000      -3.36380000
H       -1.21630000      -0.28880000      -2.38300000
H        3.03100000      -1.12750000      -2.83270000
H        3.74550000      -1.19620000      -1.19960000
H        2.23370000      -3.40070000      -2.08770000
H        1.29690000      -3.55800000       0.08680000
H       -0.23980000      -2.64950000      -1.45230000
