20
Properties=species:S:1:pos:R:3 gdb_76502=T pbc="F F F"
C       -0.09980000       1.54260000      -0.03270000
C        0.02570000       0.03630000       0.03350000
C        1.38620000      -0.64260000      -0.09740000
O        2.55310000       0.12750000      -0.15820000
C        0.67980000      -0.63820000       1.21050000
C        1.22570000      -0.06360000       2.52080000
C        0.64080000      -1.31870000       3.16960000
C       -0.79040000      -1.47360000       2.84730000
N        0.19770000      -1.90050000       1.83220000
H        0.79770000       2.02710000       0.36040000
H       -0.23670000       1.88260000      -1.06570000
H       -0.95880000       1.89750000       0.54670000
H       -0.79660000      -0.52210000      -0.40920000
H        1.42180000      -1.59200000      -0.63130000
H        2.63660000       0.47660000      -1.05180000
H        2.31650000      -0.02780000       2.52850000
H        0.83370000       0.89530000       2.87340000
H        1.14140000      -1.93410000       3.90960000
H       -1.32150000      -2.30930000       3.29280000
H       -1.40210000      -0.59630000       2.64690000
