19
Properties=species:S:1:pos:R:3 gdb_77729=T pbc="F F F"
O       -0.20100000       1.38810000       0.13390000
C       -0.15800000       0.00010000       0.00620000
C       -1.45170000      -0.76410000       0.01430000
C       -2.56530000      -0.00770000      -0.74310000
C       -1.69010000      -0.02070000      -2.04130000
C       -0.57790000      -0.72030000      -1.24300000
O       -0.02290000      -1.97180000      -1.49300000
C       -0.82860000      -2.94370000      -0.79210000
C       -1.44110000      -2.21920000       0.44930000
H        0.51690000       1.75560000      -0.39290000
H        0.65850000      -0.49660000       0.53170000
H       -3.48020000      -0.59630000      -0.84080000
H       -2.81430000       0.97490000      -0.33840000
H       -2.09890000      -0.67490000      -2.81390000
H       -1.43760000       0.94400000      -2.49010000
H       -1.62550000      -3.31170000      -1.45490000
H       -0.17990000      -3.78630000      -0.53620000
H       -0.82140000      -2.37890000       1.33720000
H       -2.44310000      -2.59640000       0.67280000
