22
Properties=species:S:1:pos:R:3 gdb_22133=T pbc="F F F"
C       -0.32420000       1.46590000       0.15960000
C       -0.00630000       0.00910000      -0.04130000
C        0.20050000      -0.87750000       1.16490000
C        1.43120000      -0.52080000       1.99820000
C        2.74960000      -0.59720000       1.25100000
C        1.28840000       0.51830000       3.08770000
C        1.42220000      -0.94270000       3.44760000
N        0.11060000      -0.57020000      -1.17620000
O       -0.07250000       0.30770000      -2.25900000
H        0.57620000       2.02000000       0.44840000
H       -0.72330000       1.90980000      -0.75160000
H       -1.04640000       1.58820000       0.97300000
H       -0.69010000      -0.81950000       1.80510000
H        0.28450000      -1.91050000       0.81140000
H        2.77070000       0.09120000       0.39930000
H        3.58850000      -0.34660000       1.90750000
H        2.91940000      -1.60640000       0.85810000
H        2.13090000       1.17340000       3.28360000
H        0.32170000       0.98860000       3.23390000
H        0.54500000      -1.45530000       3.82910000
H        2.35600000      -1.27890000       3.88560000
H       -0.00090000      -0.28940000      -3.01060000
