17
Properties=species:S:1:pos:R:3 gdb_54817=T pbc="F F F"
N        0.10780000       0.97320000       1.03100000
C        0.16410000       0.03110000       0.03390000
O        1.14660000      -0.09340000      -0.67340000
C       -1.07210000      -0.82480000      -0.02690000
C       -2.01290000      -0.83910000      -1.21130000
C       -1.50470000      -0.36190000      -2.52590000
C       -0.51850000      -1.15560000      -2.94210000
C       -0.27080000      -2.26470000      -1.94870000
N       -1.23800000      -2.03550000      -0.84180000
H        0.84720000       1.65710000       1.05030000
H       -0.76080000       1.20940000       1.47970000
H       -1.54590000      -0.93900000       0.94760000
H       -3.08230000      -0.84290000      -1.00880000
H       -1.89740000       0.50890000      -3.03470000
H        0.06700000      -1.02910000      -3.84460000
H       -0.47960000      -3.25480000      -2.37440000
H        0.75600000      -2.26140000      -1.57730000
