20
Properties=species:S:1:pos:R:3 gdb_82214=T pbc="F F F"
C       -0.05310000       1.59790000       0.01150000
C        0.04770000       0.07480000       0.01260000
N        0.68650000      -0.46880000      -1.21040000
C        2.09240000      -0.12370000      -1.46500000
C        1.75610000      -1.40240000      -0.78750000
C        1.79250000      -1.49190000       0.72020000
C        2.17720000      -0.26970000       1.54150000
C        0.73240000      -0.55830000       1.24220000
O       -0.10490000      -0.95990000       2.28620000
H        0.93140000       2.07320000       0.05840000
H       -0.55700000       1.94790000      -0.89380000
H       -0.63210000       1.94080000       0.87550000
H       -0.96860000      -0.33730000       0.02160000
H        2.36000000      -0.12360000      -2.51880000
H        2.57780000       0.66230000      -0.89510000
H        1.82880000      -2.33910000      -1.33330000
H        1.93730000      -2.46580000       1.17160000
H        2.48940000      -0.47940000       2.55990000
H        2.69280000       0.56640000       1.08430000
H       -0.20440000      -0.21830000       2.89250000
