18
Properties=species:S:1:pos:R:3 gdb_29648=T pbc="F F F"
C       -0.07720000       1.45780000      -0.00510000
N       -0.03530000       0.01500000       0.03090000
C       -0.14870000      -0.76770000      -1.11600000
O       -0.24690000      -0.38530000      -2.26970000
N       -0.13060000      -2.06060000      -0.63130000
C       -0.00360000      -2.09080000       0.76890000
C        0.04850000      -3.36230000       1.53840000
C        0.04460000      -0.79730000       1.16770000
N        0.06330000      -0.20290000       2.43920000
H        0.89840000       1.90300000       0.22570000
H       -0.35670000       1.74090000      -1.02140000
H       -0.81300000       1.83890000       0.70830000
H       -0.22590000      -2.85470000      -1.23860000
H        0.83880000      -4.02810000       1.16810000
H        0.26180000      -3.16210000       2.59220000
H       -0.89480000      -3.92300000       1.49410000
H       -0.13120000      -0.87810000       3.16710000
H        0.94590000       0.25400000       2.65130000
