13
Properties=species:S:1:pos:R:3 gdb_125462=T pbc="F F F"
C       -0.06130000       1.44990000       0.05610000
C       -0.02870000      -0.03080000      -0.04010000
N       -0.99180000      -0.84230000      -0.36780000
C       -0.36710000      -2.05320000      -0.28470000
O       -1.04200000      -3.18140000      -0.57230000
C       -0.64850000      -4.35510000       0.04700000
O       -1.12120000      -5.39440000      -0.27170000
N        0.89560000      -2.02960000       0.05780000
O        1.12400000      -0.65830000       0.23760000
H        0.64060000       1.89470000      -0.65560000
H       -1.06910000       1.80150000      -0.16210000
H        0.23110000       1.77540000       1.05860000
H        0.10110000      -4.17910000       0.83190000
