20
Properties=species:S:1:pos:R:3 gdb_106451=T pbc="F F F"
C        0.04750000       1.52330000       0.01080000
C       -0.05680000      -0.00210000      -0.11160000
C       -1.48200000      -0.49920000      -0.04170000
C       -2.52670000      -0.35970000       1.09140000
N       -3.30660000      -1.18710000       0.05190000
C       -2.68940000      -0.20790000      -0.97020000
C       -2.00290000      -1.98430000      -0.08200000
C       -1.77890000      -2.85400000      -1.28680000
O       -2.45810000      -2.89380000      -2.28220000
H        1.08980000       1.85010000      -0.04230000
H       -0.50100000       2.02410000      -0.79360000
H       -0.36430000       1.87340000       0.96310000
H        0.38980000      -0.32910000      -1.05940000
H        0.52650000      -0.47990000       0.68630000
H       -2.34810000      -0.88870000       2.03240000
H       -2.96580000       0.62630000       1.26370000
H       -3.13000000       0.79090000      -0.91580000
H       -2.68410000      -0.59000000      -1.98900000
H       -1.76920000      -2.57270000       0.81510000
H       -0.87590000      -3.50230000      -1.18660000
