16
Properties=species:S:1:pos:R:3 gdb_85019=T pbc="F F F"
C       -0.26310000       1.55040000      -0.04010000
C        0.05530000       0.05990000       0.02670000
N        0.82990000      -0.43950000      -1.10990000
C        1.96200000      -1.12350000      -0.78830000
O        2.86850000      -1.46420000      -1.51850000
C        1.92450000      -1.39060000       0.71970000
O        3.18540000      -1.43220000       1.30300000
C        0.98500000      -0.29330000       1.21570000
O        0.96370000       0.24070000       2.28740000
H        0.65000000       2.13690000      -0.17580000
H       -0.94870000       1.77020000      -0.86390000
H       -0.73370000       1.85950000       0.89610000
H       -0.87940000      -0.50950000       0.14180000
H        0.66180000      -0.13990000      -2.05890000
H        1.36970000      -2.34120000       0.85630000
H        3.79700000      -1.63180000       0.57780000
