18
Properties=species:S:1:pos:R:3 gdb_19659=T pbc="F F F"
C       -0.21650000       1.63000000      -0.04220000
C        0.03700000       0.12920000      -0.00160000
C        1.09530000      -0.57520000      -0.90680000
C        2.41270000       0.12460000      -0.52050000
C        2.36570000      -0.38730000       0.93250000
O        2.50010000      -1.82670000       0.71440000
C        1.16370000      -1.72680000       0.21570000
C        0.80240000      -0.55410000       1.14720000
H        0.68430000       2.21780000       0.15420000
H       -0.61030000       1.93790000      -1.01730000
H       -0.95750000       1.91070000       0.71440000
H       -0.91930000      -0.39800000      -0.11300000
H        0.89920000      -0.78520000      -1.95700000
H        3.29270000      -0.27480000      -1.02830000
H        2.38560000       1.20920000      -0.63800000
H        3.04460000       0.00810000       1.68640000
H        0.62580000      -2.66490000       0.08920000
H        0.43320000      -0.67550000       2.16450000
