21
Properties=species:S:1:pos:R:3 gdb_77698=T pbc="F F F"
C       -0.71520000       1.04310000       0.06670000
C       -0.05310000      -0.32420000       0.06280000
C        0.86820000      -0.71220000      -1.10010000
C        0.62370000      -0.84190000      -2.53260000
O        1.35150000       0.27940000      -2.00440000
C        1.82570000      -1.43240000      -0.15270000
C        1.13180000      -0.66380000       1.02690000
C        1.93970000       0.53560000       1.50960000
O        0.67880000      -1.45240000       2.11090000
H        0.00370000       1.83910000      -0.14230000
H       -1.49440000       1.09640000      -0.70110000
H       -1.18950000       1.24420000       1.03260000
H       -0.80030000      -1.11390000       0.20360000
H        1.21330000      -1.54230000      -3.12350000
H       -0.35860000      -0.60670000      -2.94170000
H        1.62480000      -2.50510000      -0.08780000
H        2.89180000      -1.25770000      -0.31830000
H        2.26810000       1.15860000       0.67270000
H        1.35000000       1.15170000       2.19490000
H        2.83940000       0.19690000       2.03910000
H        1.42110000      -1.60310000       2.70620000
