21
Properties=species:S:1:pos:R:3 gdb_92296=T pbc="F F F"
C       -0.93780000       1.23220000       0.15520000
C       -0.05730000       0.00500000      -0.02650000
C        1.20890000       0.09930000      -0.92610000
C        2.02650000      -0.68290000       0.14560000
C        3.26740000       0.01340000       0.73610000
C        2.70930000       1.11580000       1.65330000
C        1.32780000       0.61690000       2.10220000
O        0.71320000       1.02510000       3.05580000
C        0.85740000      -0.48340000       1.15200000
H       -0.35330000       2.11210000       0.44390000
H       -1.46130000       1.47150000      -0.77700000
H       -1.68910000       1.07030000       0.93470000
H       -0.67510000      -0.84050000      -0.34580000
H        1.13970000      -0.35550000      -1.91700000
H        1.55730000       1.13020000      -1.05230000
H        2.22390000      -1.71670000      -0.14310000
H        3.84320000      -0.70520000       1.33080000
H        3.93620000       0.39860000      -0.03970000
H        3.33280000       1.35450000       2.51770000
H        2.55440000       2.05720000       1.10950000
H        0.47660000      -1.32780000       1.73090000
