16
Properties=species:S:1:pos:R:3 gdb_35359=T pbc="F F F"
N       -0.31010000      -1.15050000      -0.26730000
C       -0.22050000      -0.00590000      -0.13070000
C       -0.05910000       1.43960000       0.01540000
C       -0.06550000       1.93880000       1.51670000
C        1.43590000       2.01820000       1.32020000
N        2.54830000       1.86500000       1.90160000
C        3.49130000       1.63720000       0.76460000
C        2.60220000       1.25340000      -0.47150000
N        1.35510000       1.92230000      -0.07330000
H       -0.73440000       1.95450000      -0.67180000
H       -0.57230000       2.89700000       1.63660000
H       -0.41250000       1.22700000       2.26400000
H        4.05740000       2.55530000       0.56670000
H        4.20500000       0.85290000       1.02580000
H        2.99220000       1.63220000      -1.41810000
H        2.46320000       0.16630000      -0.54790000
