19
Properties=species:S:1:pos:R:3 gdb_89812=T pbc="F F F"
O       -0.09680000       1.46850000       0.11290000
C       -0.01270000       0.05620000      -0.00450000
C        0.74270000      -0.63050000       1.16060000
C        0.05600000      -1.98300000       1.32190000
C        0.76790000      -3.26470000       1.24440000
O        0.32080000      -2.74440000       2.50140000
C       -1.35860000      -1.82350000       0.83940000
C       -2.10830000      -0.61310000       1.34310000
C       -1.40560000      -0.55230000       0.01490000
H        0.79000000       1.82980000       0.01550000
H        0.46630000      -0.21410000      -0.95880000
H        1.81750000      -0.71980000       0.98380000
H        0.60570000      -0.03670000       2.07040000
H        0.24620000      -4.15620000       0.89610000
H        1.84820000      -3.27750000       1.09960000
H       -1.91540000      -2.71050000       0.56060000
H       -3.19050000      -0.67070000       1.32050000
H       -1.71350000      -0.05010000       2.18100000
H       -2.00080000      -0.48520000      -0.88810000
