18
Properties=species:S:1:pos:R:3 gdb_73706=T pbc="F F F"
C        0.02150000       1.52330000      -0.12040000
C       -0.00730000       0.01890000       0.00750000
O        0.35720000      -0.54200000      -1.24130000
C       -0.12420000      -1.84770000      -1.40970000
O        0.12030000      -2.65120000      -0.27920000
C       -0.20340000      -1.93510000       0.88360000
C        0.63600000      -0.67580000       1.25130000
N       -0.53210000      -0.15290000       2.05720000
C       -1.16460000      -0.69990000       0.79940000
H        1.00740000       1.84400000      -0.47050000
H       -0.71700000       1.85300000      -0.85760000
H       -0.19110000       1.99030000       0.84110000
H       -1.21010000      -1.82020000      -1.60640000
H        0.40050000      -2.29140000      -2.25820000
H       -0.38990000      -2.64280000       1.69610000
H        1.66660000      -0.61550000       1.60290000
H       -0.72130000      -0.79880000       2.83070000
H       -2.24380000      -0.65840000       0.64250000
