19
Properties=species:S:1:pos:R:3 gdb_52396=T pbc="F F F"
O       -0.48980000       0.20810000      -0.09220000
C       -0.02350000       1.30550000       0.06840000
C        1.35560000       1.73390000      -0.37950000
C        1.31200000       2.97690000      -1.26740000
O        2.63890000       3.42760000      -1.45130000
C        2.74780000       4.52560000      -2.31540000
C        2.46760000       5.93710000      -1.73980000
O        3.80420000       6.36660000      -2.06820000
C        4.18890000       5.03380000      -2.46620000
H       -0.60670000       2.10380000       0.58600000
H        1.93670000       1.98770000       0.51800000
H        1.84830000       0.90200000      -0.88750000
H        0.84870000       2.74060000      -2.23900000
H        0.69700000       3.76140000      -0.79510000
H        2.23210000       4.32600000      -3.26480000
H        1.70610000       6.54560000      -2.24070000
H        2.28480000       5.93420000      -0.65650000
H        4.87600000       4.56330000      -1.75200000
H        4.62570000       5.01130000      -3.47030000
