21
Properties=species:S:1:pos:R:3 gdb_106762=T pbc="F F F"
C       -0.02300000       1.52860000       0.05970000
C       -0.00000000       0.02600000       0.08630000
C        1.20650000      -0.78650000      -0.31550000
C        0.65080000      -0.96190000       1.07160000
C        1.39450000      -0.78020000       2.36990000
O        1.77170000      -2.03000000       2.92880000
C       -0.57480000      -1.88690000       0.97180000
O       -1.24270000      -2.12790000       2.20020000
C       -1.24950000      -0.86880000       0.00050000
H        0.95350000       1.94790000       0.32330000
H       -0.28020000       1.90040000      -0.93990000
H       -0.76220000       1.93490000       0.76020000
H        1.12340000      -1.58490000      -1.05170000
H        2.13940000      -0.23220000      -0.37150000
H        2.31670000      -0.20990000       2.21850000
H        0.77960000      -0.20810000       3.08510000
H        0.94610000      -2.49790000       3.10540000
H       -0.37350000      -2.88100000       0.56110000
H       -1.54020000      -1.28180000       2.55340000
H       -2.12750000      -0.41630000       0.47490000
H       -1.54120000      -1.22790000      -0.99280000
