19
Properties=species:S:1:pos:R:3 gdb_31232=T pbc="F F F"
C        0.19410000       1.53510000       0.31920000
C       -0.07930000       0.05930000      -0.01580000
C        0.57310000      -0.38110000      -1.29010000
C        0.00020000      -0.67890000      -2.50460000
C       -1.39600000      -0.66550000      -3.02140000
O       -1.54030000      -1.76350000      -3.92370000
N        1.05380000      -0.99110000      -3.33980000
C        2.19400000      -0.89290000      -2.60490000
N        1.94620000      -0.51540000      -1.37270000
H        1.27100000       1.71570000       0.37560000
H       -0.21670000       2.19630000      -0.45100000
H       -0.25390000       1.81060000       1.27930000
H        0.29600000      -0.56700000       0.80220000
H       -1.16030000      -0.11390000      -0.07440000
H       -2.09670000      -0.73460000      -2.17700000
H       -1.61260000       0.28060000      -3.54550000
H       -2.38990000      -1.67420000      -4.36620000
H        0.94620000      -1.35720000      -4.27140000
H        3.16730000      -1.11480000      -3.01690000
