18
Properties=species:S:1:pos:R:3 gdb_63569=T pbc="F F F"
C       -0.09160000       1.55090000      -0.05860000
C        0.03070000       0.04950000      -0.00380000
O       -1.14150000      -0.56460000      -0.44490000
C        1.35900000      -0.60990000      -0.27180000
C        0.78050000      -0.62550000       1.12560000
C        1.30090000      -0.16270000       2.49810000
N        0.74340000      -1.42620000       3.02720000
C        0.19610000      -1.82120000       1.82770000
O       -0.53050000      -2.72890000       1.49160000
H        0.83480000       2.03700000       0.25890000
H       -0.31410000       1.86690000      -1.08270000
H       -0.90840000       1.89230000       0.58460000
H       -1.18150000      -1.46210000      -0.07810000
H        1.36360000      -1.55400000      -0.80810000
H        2.22330000       0.02380000      -0.44530000
H        2.38740000      -0.08500000       2.60020000
H        0.82080000       0.73590000       2.89890000
H        0.49450000      -1.68640000       3.97010000
