20
Properties=species:S:1:pos:R:3 gdb_64431=T pbc="F F F"
C       -0.20740000       1.60940000       0.10610000
C       -0.02970000       0.08900000      -0.01790000
C       -1.38890000      -0.61060000       0.06590000
C        0.66120000      -0.30310000      -1.33950000
N        1.98810000       0.22240000      -1.62460000
C        2.95280000       0.14310000      -0.81780000
O        3.00340000      -0.30120000       0.47080000
C        1.95250000       0.06500000       1.36960000
O        0.71000000      -0.46890000       1.09150000
H        0.71410000       2.16260000      -0.08780000
H       -0.94560000       1.94640000      -0.62730000
H       -0.57420000       1.87020000       1.10340000
H       -2.02710000      -0.32360000      -0.77440000
H       -1.25800000      -1.69590000       0.05390000
H       -1.89620000      -0.33870000       0.99550000
H        0.72090000      -1.39990000      -1.36380000
H        0.00690000      -0.00160000      -2.16490000
H        3.95410000       0.41390000      -1.15520000
H        2.26360000      -0.34990000       2.32980000
H        1.92730000       1.16110000       1.42150000
