18
Properties=species:S:1:pos:R:3 gdb_62982=T pbc="F F F"
C       -0.16410000       1.58100000      -0.08630000
C        0.01390000       0.07220000      -0.04790000
O       -1.21460000      -0.58460000       0.18600000
C        0.68720000      -0.63270000      -1.23000000
C        2.12730000      -0.22920000      -1.37320000
C        1.75860000      -1.23700000      -0.32670000
C        1.15240000      -0.53900000       0.90350000
C        2.00470000       0.36440000       1.66040000
N        2.66570000       1.11550000       2.24140000
H        0.77260000       2.10180000      -0.29570000
H       -0.89310000       1.84360000      -0.85860000
H       -0.53000000       1.95170000       0.87910000
H       -1.66970000      -0.12760000       0.90230000
H        0.12270000      -1.10180000      -2.02560000
H        2.62890000      -0.63690000      -2.24440000
H        2.47210000       0.76170000      -1.09140000
H        2.16060000      -2.24130000      -0.31110000
H        0.66700000      -1.24760000       1.57700000
