18
Properties=species:S:1:pos:R:3 gdb_22267=T pbc="F F F"
C       -0.51460000       1.38480000       0.07890000
C        0.06450000      -0.00070000       0.01820000
N        0.48630000      -0.63350000       1.05420000
O        0.34800000       0.12410000       2.22780000
C        0.11830000      -0.73240000      -1.28470000
O       -0.33120000      -0.02020000      -2.40450000
C        1.18950000      -1.79170000      -1.52820000
C       -0.23140000      -2.22370000      -1.29530000
O       -0.62210000      -2.89330000      -0.15530000
H        0.26060000       2.10450000       0.36440000
H       -0.93970000       1.66770000      -0.88220000
H       -1.28240000       1.43280000       0.85620000
H        0.71490000      -0.46310000       2.89730000
H        0.40760000       0.49480000      -2.74910000
H        1.58400000      -1.84740000      -2.53780000
H        1.90280000      -1.95370000      -0.72700000
H       -0.80750000      -2.53390000      -2.16070000
H       -0.22550000      -2.42360000       0.59940000
