18
Properties=species:S:1:pos:R:3 gdb_40485=T pbc="F F F"
C        0.35390000       1.48340000       0.12680000
O        1.11990000       0.34530000      -0.26760000
C       -0.25900000       0.14750000       0.07570000
C       -0.53110000      -0.64750000       1.30720000
C       -1.81800000      -0.80460000       2.11470000
N       -0.88240000      -1.69980000       2.91770000
C       -0.20040000      -2.15320000       1.59840000
C        1.19230000      -1.85640000       2.16210000
C        0.28880000      -0.71550000       2.63770000
H        0.61910000       1.91330000       1.09140000
H        0.14430000       2.20250000      -0.66360000
H       -0.89730000      -0.08180000      -0.78010000
H       -2.18360000       0.06250000       2.67570000
H       -2.65350000      -1.34570000       1.65740000
H       -0.57370000      -3.02730000       1.06090000
H        1.54290000      -2.53970000       2.93990000
H        1.97220000      -1.59750000       1.44610000
H        0.49180000       0.10200000       3.33250000
