14
Properties=species:S:1:pos:R:3 gdb_56376=T pbc="F F F"
N        0.08620000       1.53840000       0.14910000
C       -0.00200000       0.08830000      -0.03300000
C        0.58380000      -0.37990000      -1.31560000
N        1.03210000      -0.64950000      -2.34550000
C        0.72250000      -0.56480000       1.07830000
N        1.27870000      -1.06190000       1.95890000
C       -1.49040000      -0.30090000       0.05820000
C       -2.33230000      -0.45870000      -1.13370000
O       -1.84840000      -1.58630000      -0.39180000
H        1.05670000       1.83470000       0.19110000
H       -0.34520000       2.00310000      -0.64480000
H       -1.92910000       0.02650000       0.99930000
H       -3.40010000      -0.26920000      -1.04910000
H       -1.90200000      -0.34380000      -2.12580000
