18
Properties=species:S:1:pos:R:3 gdb_30288=T pbc="F F F"
C       -0.10880000       1.51890000      -0.08060000
N        0.06560000       0.08300000       0.03200000
C        0.73300000      -0.55590000      -1.13680000
C        1.39330000      -1.87780000      -0.62140000
C        1.53560000      -1.48900000       0.81040000
C        0.76990000      -0.42240000       1.13860000
C        0.85100000      -0.27630000       2.55860000
C        1.66170000      -1.30150000       2.96320000
O        2.07600000      -2.07010000       1.91280000
H        0.84460000       2.06300000      -0.20930000
H       -0.74900000       1.74410000      -0.93940000
H       -0.60540000       1.90100000       0.81570000
H        0.01460000      -0.72360000      -1.94370000
H        1.52480000       0.11150000      -1.51530000
H        0.72450000      -2.73980000      -0.75630000
H        2.32350000      -2.09630000      -1.15440000
H        0.39770000       0.46290000       3.20000000
H        2.04560000      -1.59050000       3.92780000
