17
Properties=species:S:1:pos:R:3 gdb_52803=T pbc="F F F"
C        0.12430000       1.51460000       0.01030000
C        0.09060000       0.06070000       0.04400000
C        0.05760000      -1.14270000       0.09000000
C        0.04860000      -2.57990000       0.07860000
O        1.11450000      -3.19180000      -0.59520000
C       -0.43440000      -3.36100000       1.26140000
C       -1.30050000      -3.33800000       0.01040000
C       -2.55410000      -2.65270000      -0.01040000
C       -3.61280000      -2.08180000      -0.03870000
H        1.15460000       1.88700000       0.01610000
H       -0.36890000       1.90770000      -0.88550000
H       -0.38520000       1.93810000       0.88280000
H        1.15660000      -2.80830000      -1.47870000
H        0.09850000      -4.28090000       1.47230000
H       -0.78630000      -2.80640000       2.12180000
H       -1.23520000      -4.23000000      -0.60560000
H       -4.54450000      -1.57390000      -0.06340000
