16
Properties=species:S:1:pos:R:3 gdb_10995=T pbc="F F F"
C       -0.02160000       1.54830000       0.02430000
C        0.05670000       0.04010000       0.01720000
C       -0.82060000      -0.79790000       0.92610000
C        0.69330000      -0.78190000       1.11020000
C        1.45790000      -1.89890000       0.43210000
O        2.17340000      -2.71360000       0.96700000
C        1.17010000      -1.76860000      -1.02700000
C        0.41850000      -0.68200000      -1.24830000
H        0.93020000       1.99750000      -0.27810000
H       -0.79540000       1.90550000      -0.66510000
H       -0.26790000       1.92300000       1.02200000
H       -1.39910000      -0.28020000       1.68550000
H       -1.28870000      -1.69010000       0.52440000
H        1.09720000      -0.34880000       2.01660000
H        1.52470000      -2.48390000      -1.75720000
H        0.05610000      -0.34760000      -2.21530000
