18
Properties=species:S:1:pos:R:3 gdb_68664=T pbc="F F F"
C        0.03990000       1.55470000      -0.01530000
C       -0.00960000       0.04630000      -0.00070000
N        0.30180000      -0.68880000      -1.29910000
C       -0.63860000      -1.79380000      -0.86260000
C        0.14960000      -2.75960000       0.03310000
C        0.90280000      -1.96160000       1.07250000
C        0.81920000      -0.63140000       1.07760000
C       -1.36100000      -0.70180000      -0.04830000
O       -2.50220000      -0.40680000       0.15920000
H        1.05970000       1.90970000      -0.19570000
H       -0.61660000       1.96480000      -0.78880000
H       -0.29490000       1.95010000       0.94850000
H       -0.15680000      -0.17660000      -2.05410000
H       -1.19320000      -2.29550000      -1.65820000
H       -0.54200000      -3.46350000       0.51500000
H        0.83830000      -3.36190000      -0.57400000
H        1.49860000      -2.49720000       1.80560000
H        1.30920000      -0.01550000       1.82500000
