16
Properties=species:S:1:pos:R:3 gdb_129636=T pbc="F F F"
N       -0.09980000       1.34130000      -0.02260000
C       -0.12430000      -0.04510000      -0.04480000
C       -1.22230000      -0.89770000      -0.01170000
C       -2.65790000      -0.48850000      -0.01000000
O       -2.92000000       0.57360000      -0.94400000
C       -0.63160000      -2.18360000       0.00610000
O       -1.32660000      -3.34220000       0.03220000
N        0.68800000      -2.16650000      -0.00970000
N        0.98170000      -0.82190000      -0.05040000
H        0.67060000       1.75670000      -0.52990000
H       -0.98840000       1.71000000      -0.34500000
H       -3.29580000      -1.35990000      -0.20870000
H       -2.96940000      -0.07460000       0.95640000
H       -2.66720000       0.24340000      -1.81350000
H       -0.67780000      -4.05730000       0.02580000
H        1.94270000      -0.53330000      -0.01080000
