16
Properties=species:S:1:pos:R:3 gdb_58175=T pbc="F F F"
C        0.01710000       1.56670000       0.14980000
C        0.02540000       0.04540000       0.06720000
O        0.72220000      -0.56140000       1.14100000
C       -1.42730000      -0.50940000      -0.04560000
O       -2.05500000      -0.00650000      -1.19090000
C       -1.41910000      -2.03090000      -0.09740000
O       -1.68980000      -2.62320000      -1.11700000
C       -1.11730000      -2.76090000       1.13730000
N       -0.96240000      -3.35100000       2.11960000
H        1.04230000       1.94550000       0.16260000
H       -0.51410000       1.99370000      -0.70330000
H       -0.48750000       1.90030000       1.06590000
H        0.55330000      -0.27160000      -0.83990000
H        0.43310000      -0.15870000       1.96770000
H       -1.98520000      -0.20340000       0.85480000
H       -2.14310000      -0.75130000      -1.80580000
