23
Properties=species:S:1:pos:R:3 gdb_114204=T pbc="F F F"
C        0.02480000       1.55370000      -0.16620000
C        0.04100000       0.03050000       0.00490000
C       -1.35990000      -0.56430000       0.08960000
C       -2.26410000      -0.53190000      -1.18430000
C       -2.71480000      -1.94520000      -0.82260000
C       -4.07000000      -2.49230000      -0.75700000
O       -3.13250000      -2.92900000      -1.75330000
C       -1.55660000      -2.12310000       0.17110000
C       -0.42450000      -2.99510000      -0.37000000
H        1.04000000       1.95840000      -0.22330000
H       -0.50090000       1.84410000      -1.08230000
H       -0.48210000       2.04120000       0.67400000
H        0.58800000      -0.42250000      -0.83070000
H        0.60050000      -0.22860000       0.91340000
H       -1.89360000      -0.09690000       0.92520000
H       -3.02980000       0.24430000      -1.25390000
H       -1.67380000      -0.52680000      -2.10710000
H       -4.32230000      -3.23260000       0.00210000
H       -4.91070000      -1.91010000      -1.13370000
H       -1.85340000      -2.48500000       1.16100000
H       -0.10870000      -2.68320000      -1.37050000
H        0.45020000      -2.96440000       0.28700000
H       -0.75770000      -4.03420000      -0.44730000
