13
Properties=species:S:1:pos:R:3 gdb_25096=T pbc="F F F"
N       -0.16490000       1.15480000      -0.55240000
C        0.00160000       0.00130000      -0.03750000
C       -1.24000000      -0.71040000       0.39860000
N       -1.52110000      -1.94600000       0.29780000
C       -0.69620000      -2.91870000      -0.27650000
O       -1.13160000      -3.83980000      -0.91740000
N        0.68030000      -2.88570000       0.04570000
C        1.49440000      -1.80850000       0.28490000
N        1.25240000      -0.55420000       0.23760000
H        0.74520000       1.55390000      -0.79960000
H       -1.99460000      -0.06060000       0.84540000
H        1.13810000      -3.77090000      -0.13330000
H        2.51460000      -2.11260000       0.52100000
