17
Properties=species:S:1:pos:R:3 gdb_29936=T pbc="F F F"
C       -0.03570000       1.44030000       0.03500000
N        0.00080000      -0.01070000       0.04240000
C        0.02480000      -0.80720000      -1.04770000
N        0.05650000      -2.09370000      -0.74750000
C        0.05330000      -2.15030000       0.61560000
C        0.08380000      -3.44810000       1.35040000
C        0.01880000      -0.86230000       1.14900000
C        0.00170000      -0.38510000       2.51560000
O        0.01640000      -1.08870000       3.50750000
H        0.84160000       1.85860000       0.53650000
H       -0.04000000       1.78110000      -1.00190000
H       -0.93690000       1.81400000       0.52920000
H        0.01790000      -0.39760000      -2.04830000
H        0.97920000      -4.01730000       1.07800000
H        0.07600000      -3.27990000       2.42690000
H       -0.77990000      -4.06180000       1.07230000
H       -0.02740000       0.72310000       2.62030000
