18
Properties=species:S:1:pos:R:3 gdb_108452=T pbc="F F F"
O       -0.03790000       1.41340000      -0.02490000
C        0.02060000       0.00590000       0.09440000
C       -1.37950000      -0.57330000       0.05350000
C       -2.33890000      -0.41950000       1.27780000
C       -2.76260000      -1.91560000       1.13760000
C       -1.85110000      -2.05410000      -0.09490000
O       -2.55050000      -1.69750000      -1.33910000
C       -2.10100000      -0.39940000      -1.25780000
N       -2.20840000       0.57390000      -2.04650000
H       -0.54500000       1.60410000      -0.82820000
H        0.63380000      -0.44870000      -0.70130000
H        0.50690000      -0.21260000       1.05170000
H       -1.79130000      -0.20940000       2.19890000
H       -3.12570000       0.32760000       1.16500000
H       -2.44090000      -2.53740000       1.97650000
H       -3.81610000      -2.11540000       0.93390000
H       -1.21640000      -2.92710000      -0.24350000
H       -2.73900000       0.34290000      -2.88720000
