19
Properties=species:S:1:pos:R:3 gdb_108607=T pbc="F F F"
C       -0.25970000       1.61030000      -0.12110000
C        0.03420000       0.10220000       0.00010000
C        0.78530000      -0.45040000      -1.17090000
C        2.04820000      -0.89190000      -1.25440000
C        3.13200000      -0.99650000      -0.23350000
C        2.29920000      -1.33220000      -2.65040000
O        3.29930000      -1.78900000      -3.13090000
O        1.15180000      -1.13630000      -3.37880000
C        0.14910000      -0.58770000      -2.53130000
H        0.66830000       2.18380000      -0.20300000
H       -0.87050000       1.83280000      -1.00140000
H       -0.80350000       1.96470000       0.75920000
H        0.59870000      -0.08540000       0.91860000
H       -0.91660000      -0.43800000       0.10370000
H        3.49650000      -2.02700000      -0.16750000
H        3.99240000      -0.38370000      -0.52370000
H        2.79890000      -0.67850000       0.75690000
H       -0.71840000      -1.26130000      -2.51690000
H       -0.18170000       0.37260000      -2.94710000
