20
Properties=species:S:1:pos:R:3 gdb_87177=T pbc="F F F"
C       -0.02380000       1.66460000      -0.71480000
C       -0.00620000       0.22720000      -0.23200000
C       -1.29490000      -0.54000000      -0.43880000
C       -2.43280000      -0.00790000       0.44320000
N       -3.68360000      -0.37180000       0.03860000
O       -2.24570000       0.66660000       1.43930000
C        1.31610000      -0.52410000      -0.30650000
C        0.76870000      -0.10040000       1.02290000
O        1.44760000       0.90430000       1.71300000
H        0.90010000       2.17640000      -0.43750000
H       -0.12740000       1.71200000      -1.80540000
H       -0.85840000       2.21440000      -0.26820000
H       -1.60320000      -0.52440000      -1.49300000
H       -1.15570000      -1.59780000      -0.17970000
H       -3.84440000      -0.93070000      -0.78040000
H       -4.47040000      -0.09630000       0.60300000
H        1.32220000      -1.58070000      -0.55430000
H        2.16870000       0.03210000      -0.68050000
H        0.35060000      -0.88100000       1.65850000
H        0.77810000       1.41040000       2.18860000
