16
Properties=species:S:1:pos:R:3 gdb_45513=T pbc="F F F"
O       -0.02710000       0.04340000       0.04920000
C       -0.04190000       1.24440000      -0.00260000
C       -1.27330000       2.17580000      -0.04870000
N       -0.67830000       3.46880000      -0.31810000
C       -1.09770000       4.79140000       0.14120000
C        0.27160000       5.54060000       0.07530000
N        1.31870000       4.49530000       0.18310000
C        0.68440000       3.41650000      -0.04240000
N        1.06220000       2.08790000      -0.00720000
H       -1.97370000       1.84450000      -0.82070000
H       -1.78810000       2.12620000       0.92460000
H       -1.86170000       5.22880000      -0.50580000
H       -1.49110000       4.74870000       1.16970000
H        0.37590000       6.07310000      -0.87880000
H        0.38110000       6.27500000       0.87680000
H        2.01030000       1.76760000       0.10490000
