19
Properties=species:S:1:pos:R:3 gdb_63236=T pbc="F F F"
C        0.35290000       1.50340000      -0.00840000
C       -0.03300000       0.02440000      -0.04340000
O       -1.47040000      -0.00400000       0.02990000
C        0.41670000      -0.63310000      -1.32500000
C        1.03900000      -1.80720000      -1.40730000
C        1.43180000      -2.65520000      -0.22890000
C        1.21220000      -1.97530000       1.10190000
O        1.93470000      -0.75760000       1.31620000
C        0.51340000      -0.68380000       1.18920000
H        1.44010000       1.60680000       0.01580000
H       -0.04010000       2.01700000      -0.89030000
H       -0.06970000       1.97860000       0.88200000
H       -1.74860000      -0.90300000      -0.17720000
H        0.16070000      -0.08990000      -2.23170000
H        1.29310000      -2.20620000      -2.38670000
H        0.86520000      -3.59780000      -0.24550000
H        2.48700000      -2.95000000      -0.31420000
H        1.19560000      -2.63360000       1.97100000
H       -0.01730000      -0.42320000       2.10560000
