14
Properties=species:S:1:pos:R:3 gdb_25190=T pbc="F F F"
N        0.00370000       1.00540000      -0.83400000
C       -0.02280000      -0.01490000      -0.07810000
N        1.09400000      -0.56490000       0.55200000
C        1.43710000      -1.79420000       0.40160000
C        0.72890000      -2.85350000      -0.27890000
C       -0.61320000      -2.90530000      -0.43190000
N       -1.53580000      -1.96710000      -0.04180000
C       -1.39170000      -0.59970000       0.23040000
O       -2.32870000       0.03840000       0.63770000
H        0.97160000       1.32470000      -0.93670000
H        2.38450000      -2.08110000       0.86430000
H        1.29580000      -3.72790000      -0.57580000
H       -1.06510000      -3.79460000      -0.85950000
H       -2.50520000      -2.25380000      -0.00790000
