19
Properties=species:S:1:pos:R:3 gdb_38032=T pbc="F F F"
C        0.05450000       1.52690000       0.06160000
C        1.36850000       0.77200000      -0.02450000
C        1.97600000       0.48750000       1.31440000
C        1.21040000      -0.35370000       2.00980000
C        1.00590000      -0.73790000       3.44390000
O       -0.38220000      -1.10490000       3.52590000
C       -1.06220000      -0.70860000       2.32690000
C        0.00200000      -0.82910000       1.22790000
C        0.03460000       0.02170000      -0.03280000
H       -0.18730000       2.01340000       1.00060000
H       -0.27490000       2.06450000      -0.82180000
H        1.98230000       0.88070000      -0.91210000
H        2.85360000       1.00780000       1.68210000
H        1.60130000      -1.60660000       3.75540000
H        1.22810000       0.08650000       4.13620000
H       -1.91850000      -1.37780000       2.20860000
H       -1.43130000       0.32580000       2.40420000
H        0.10240000      -1.89220000       0.96680000
H       -0.33490000      -0.40980000      -0.95500000
