13
Properties=species:S:1:pos:R:3 gdb_27334=T pbc="F F F"
N        0.01560000       1.36280000       0.15140000
C       -0.05210000      -0.00760000       0.05220000
C       -1.16660000      -0.75930000       0.01950000
O       -1.10160000      -2.14090000      -0.01950000
C        0.10740000      -2.68400000      -0.01570000
O        0.00870000      -4.00990000      -0.03330000
N        1.24600000      -2.08740000      -0.00320000
C        1.26890000      -0.69870000       0.01260000
O        2.29870000      -0.05180000      -0.01550000
H        0.94150000       1.70360000      -0.07660000
H       -0.74480000       1.90270000      -0.23050000
H       -2.19130000      -0.41860000       0.02440000
H        0.91700000      -4.34390000      -0.03390000
