16
Properties=species:S:1:pos:R:3 gdb_73778=T pbc="F F F"
C        0.07110000       1.53430000       0.02470000
C        0.00630000       0.04110000       0.02350000
C       -1.07450000      -0.77430000       0.04080000
N       -2.41390000      -0.53680000       0.10280000
C       -0.62180000      -2.20490000       0.02290000
O       -1.32710000      -3.18920000      -0.01620000
N        0.75600000      -2.14680000       0.04210000
C        1.20740000      -0.81060000       0.01370000
N        2.40870000      -0.38760000      -0.01890000
H        1.08110000       1.86000000      -0.23270000
H       -0.62810000       1.97100000      -0.69880000
H       -0.17500000       1.95380000       1.00820000
H       -2.76440000       0.36260000      -0.18310000
H       -2.99600000      -1.33150000      -0.12040000
H        1.34500000      -2.95990000      -0.02640000
H        3.08280000      -1.15410000      -0.01920000
