16
Properties=species:S:1:pos:R:3 gdb_9010=T pbc="F F F"
C        0.01880000       1.49390000       0.09400000
C        0.01130000       0.03890000       0.05390000
C        0.00660000      -1.16360000       0.01190000
C       -0.00260000      -2.61900000      -0.01540000
C       -1.43310000      -3.20800000      -0.12760000
N       -2.05500000      -2.82440000      -1.39150000
C       -1.38110000      -4.67400000       0.07630000
N       -1.35510000      -5.82440000       0.19220000
H        0.92060000       1.89840000      -0.37860000
H       -0.84640000       1.90810000      -0.43510000
H       -0.01120000       1.86640000       1.12380000
H        0.59220000      -2.99510000      -0.85830000
H        0.46600000      -3.02170000       0.89020000
H       -2.03610000      -2.78460000       0.68300000
H       -1.56000000      -3.25590000      -2.16740000
H       -3.01070000      -3.16480000      -1.43030000
