21
Properties=species:S:1:pos:R:3 gdb_60844=T pbc="F F F"
C       -0.28970000       1.46200000       0.07640000
C       -0.00860000      -0.04800000      -0.05360000
C        0.78310000      -0.30430000      -1.32640000
O        0.32680000      -0.79910000      -2.32590000
C        0.75850000      -0.58370000       1.15350000
O        1.97820000       0.08080000       1.39050000
C        0.01180000      -1.10130000       2.36180000
C        0.80740000      -2.05080000       1.48230000
C        0.13170000      -3.12540000       0.65910000
H        0.63960000       2.04150000       0.07660000
H       -0.90160000       1.81570000      -0.75760000
H       -0.82630000       1.67120000       1.00770000
H       -0.95930000      -0.57790000      -0.15540000
H        1.84680000       0.01620000      -1.27200000
H        1.78110000       0.93080000       1.79900000
H        0.41380000      -0.85390000       3.33840000
H       -1.07200000      -1.15090000       2.31290000
H        1.76610000      -2.34150000       1.90250000
H       -0.84740000      -2.80860000       0.28960000
H        0.73690000      -3.40560000      -0.20940000
H       -0.02320000      -4.02530000       1.26380000
