20
Properties=species:S:1:pos:R:3 gdb_8207=T pbc="F F F"
C       -0.01470000       1.50740000       0.04240000
C       -0.01090000      -0.00130000       0.03680000
C        1.29380000      -0.73780000      -0.24160000
C        0.65680000      -0.80570000       1.12720000
O        1.26140000      -0.13410000       2.19350000
C       -0.20790000      -2.01690000       1.44520000
C       -1.12280000      -2.17370000       0.21090000
C       -1.28640000      -0.74170000      -0.35390000
H        0.88840000       1.89590000       0.52040000
H       -0.06660000       1.91140000      -0.97530000
H       -0.87670000       1.89500000       0.59790000
H        1.30820000      -1.61230000      -0.88530000
H        2.17690000      -0.11140000      -0.31620000
H        2.06260000      -0.61230000       2.43170000
H        0.37100000      -2.92390000       1.65620000
H       -0.79140000      -1.78400000       2.34390000
H       -0.64580000      -2.82110000      -0.53180000
H       -2.08180000      -2.63580000       0.45820000
H       -2.14110000      -0.23960000       0.11760000
H       -1.47150000      -0.74040000      -1.43410000
