17
Properties=species:S:1:pos:R:3 gdb_71377=T pbc="F F F"
C        0.00470000       1.46780000       0.01750000
C       -0.01950000      -0.03160000      -0.02320000
C       -1.21610000      -0.96070000      -0.22660000
N       -0.36760000      -2.09740000       0.32210000
C        0.55300000      -1.03920000       0.91160000
C        1.20630000      -0.86770000      -0.50200000
N        2.39780000      -0.29860000      -0.97820000
C        0.64040000      -2.21900000      -0.78840000
O        0.91760000      -3.16230000      -1.45780000
H        0.95970000       1.84940000       0.39350000
H       -0.16740000       1.89720000      -0.97570000
H       -0.77880000       1.84110000       0.68530000
H       -2.03980000      -0.74350000       0.45960000
H       -1.59960000      -1.13110000      -1.23910000
H        1.01200000      -1.05870000       1.88860000
H        2.42490000       0.71070000      -0.94380000
H        3.23480000      -0.68670000      -0.56310000
