21
Properties=species:S:1:pos:R:3 gdb_109155=T pbc="F F F"
C       -0.00210000       1.56660000       0.26800000
C        0.00050000       0.07640000      -0.11690000
C       -1.37440000      -0.51870000      -0.13130000
C       -2.10680000      -0.94840000      -1.16960000
C       -3.45070000      -1.51060000      -0.78150000
C       -3.52760000      -1.30050000       0.74650000
C       -3.89330000      -2.53410000       1.57540000
C       -2.14160000      -0.74720000       1.12170000
O       -1.74690000      -0.54780000       2.25050000
H        1.01820000       1.96100000       0.28860000
H       -0.58030000       2.15730000      -0.44970000
H       -0.44140000       1.70400000       1.25920000
H        0.47380000      -0.05960000      -1.09550000
H        0.60600000      -0.47140000       0.61550000
H       -1.77930000      -0.92130000      -2.20500000
H       -4.26590000      -1.01550000      -1.32300000
H       -3.51560000      -2.57420000      -1.04780000
H       -4.24540000      -0.50180000       0.97350000
H       -3.22830000      -3.37320000       1.34280000
H       -3.79020000      -2.30960000       2.64030000
H       -4.92140000      -2.85410000       1.38140000
