17
Properties=species:S:1:pos:R:3 gdb_84689=T pbc="F F F"
O        0.38150000       1.16540000      -0.60630000
C        0.09990000      -0.12080000      -0.06890000
C        0.59890000      -0.32180000       1.34440000
C       -0.33690000      -0.78890000       2.17250000
C       -1.64900000      -0.99250000       1.46790000
O       -2.60500000       0.07050000       1.73250000
C       -2.40290000       0.63010000       0.41710000
C       -1.40620000      -0.49310000       0.02860000
O       -1.83950000      -1.37850000      -0.97210000
H        0.18050000       1.81960000       0.07200000
H        0.57740000      -0.82010000      -0.76710000
H        1.62380000      -0.08610000       1.61270000
H       -0.20350000      -0.98740000       3.23010000
H       -2.10030000      -1.98200000       1.58990000
H       -3.32020000       0.61100000      -0.18160000
H       -2.01320000       1.65490000       0.45330000
H       -1.64750000      -0.97840000      -1.82790000
