18
Properties=species:S:1:pos:R:3 gdb_17830=T pbc="F F F"
C       -0.09160000       1.50800000       0.05060000
C        0.11470000       0.00350000      -0.03740000
O        1.22900000      -0.47450000      -0.10720000
C       -1.13950000      -0.81020000      -0.03050000
C       -1.38560000      -2.07260000      -0.84710000
C       -0.13550000      -2.95590000      -0.96750000
C       -0.07320000      -3.03850000       0.59200000
C       -1.32530000      -2.15280000       0.66520000
H        0.87330000       2.01570000       0.03930000
H       -0.70420000       1.85770000      -0.78860000
H       -0.63460000       1.76450000       0.96780000
H       -2.03990000      -0.20450000       0.03750000
H       -2.24870000      -2.10690000      -1.50210000
H       -0.37050000      -3.92110000      -1.42210000
H        0.72760000      -2.51770000      -1.46840000
H       -0.27550000      -4.04730000       0.95950000
H        0.82880000      -2.65200000       1.06620000
H       -2.13370000      -2.25980000       1.37950000
