17
Properties=species:S:1:pos:R:3 gdb_108040=T pbc="F F F"
O        0.07850000       1.29590000      -0.33050000
C        0.03970000      -0.02030000       0.19340000
C       -1.35770000      -0.56540000       0.22420000
C       -2.47490000      -0.25750000       1.22390000
C       -3.24320000      -1.50240000       0.65360000
N       -4.10740000      -0.98030000      -0.42050000
C       -3.29380000      -0.63160000      -1.33270000
N       -1.90730000      -0.95530000      -1.15240000
C       -1.90570000      -1.92010000      -0.03810000
H       -0.27000000       1.24080000      -1.22770000
H        0.67920000      -0.70640000      -0.38120000
H        0.44020000       0.04340000       1.21080000
H       -2.11170000      -0.44540000       2.23730000
H       -2.99430000       0.70250000       1.17800000
H       -3.75890000      -2.16460000       1.34390000
H       -3.58340000      -0.11040000      -2.23940000
H       -1.43520000      -2.89010000      -0.15740000
