22
Properties=species:S:1:pos:R:3 gdb_120877=T pbc="F F F"
C       -0.05810000       1.49440000      -0.04130000
C       -0.11810000      -0.00170000       0.21640000
O       -1.34050000      -0.49600000      -0.29540000
C       -1.49540000      -1.87550000      -0.14320000
C       -1.84270000      -2.48050000       1.27400000
C       -3.09260000      -3.10640000       0.63270000
C       -3.70260000      -4.43450000       0.95470000
N       -3.89850000      -1.94530000       0.19020000
C       -2.79940000      -2.44840000      -0.67760000
H        0.87570000       1.91250000       0.34680000
H       -0.11360000       1.70120000      -1.11380000
H       -0.89610000       1.99910000       0.44750000
H        0.73110000      -0.51360000      -0.26920000
H       -0.04230000      -0.20880000       1.29640000
H       -0.63440000      -2.41140000      -0.57390000
H       -1.10260000      -3.20350000       1.62440000
H       -2.05910000      -1.74820000       2.05500000
H       -4.21080000      -4.41160000       1.92610000
H       -4.44070000      -4.72380000       0.19820000
H       -2.94010000      -5.21980000       0.99800000
H       -4.76220000      -2.31560000      -0.20890000
H       -3.00490000      -2.77430000      -1.69070000
