16
Properties=species:S:1:pos:R:3 gdb_39168=T pbc="F F F"
C        0.00110000       1.42490000      -0.22810000
C        1.43900000       1.97160000       0.11840000
C        2.22560000       0.68680000       0.14590000
O        3.33790000       0.36970000      -0.71320000
C        3.43500000       0.06330000       0.68410000
C        3.07040000      -1.39270000       0.95390000
O        1.71890000      -1.58420000       0.45160000
C        1.19470000      -0.37800000       0.16500000
N       -0.01310000      -0.04070000      -0.00600000
H       -0.76460000       1.88580000       0.40230000
H       -0.27010000       1.63890000      -1.26830000
H        1.82760000       2.67100000      -0.62400000
H        1.43920000       2.47090000       1.09120000
H        4.21310000       0.56430000       1.25100000
H        3.72480000      -2.09440000       0.43020000
H        3.07740000      -1.61630000       2.02660000
