21
Properties=species:S:1:pos:R:3 gdb_105887=T pbc="F F F"
C       -1.11640000       1.04000000      -0.45730000
O       -0.23300000      -0.02080000      -0.12620000
C        0.56170000      -0.42920000      -1.17360000
C        0.02680000      -1.26410000      -2.33310000
C        0.17760000      -1.02950000      -3.82130000
C        1.12340000      -1.79970000      -1.45040000
O        2.39570000      -1.26550000      -1.83610000
C        1.99540000       0.07060000      -1.39660000
C        2.36100000       1.18980000      -2.35020000
H       -0.57190000       1.94930000      -0.74710000
H       -1.78980000       0.75870000      -1.27810000
H       -1.70750000       1.25150000       0.43640000
H       -0.93460000      -1.67910000      -2.03010000
H        1.23000000      -0.92010000      -4.09060000
H       -0.21850000      -1.88580000      -4.37780000
H       -0.36360000      -0.13810000      -4.15620000
H        1.10790000      -2.72990000      -0.89460000
H        2.44660000       0.25650000      -0.41180000
H        1.86900000       1.09070000      -3.31870000
H        2.07700000       2.15320000      -1.91260000
H        3.44410000       1.20450000      -2.51180000
