21
Properties=species:S:1:pos:R:3 gdb_57592=T pbc="F F F"
C        0.33880000       1.60130000      -0.09300000
C        0.04970000       0.08190000      -0.07380000
C        0.40230000      -0.50880000       1.29570000
C       -1.44350000      -0.10120000      -0.33550000
O       -2.22390000      -0.62850000       0.41500000
C        0.80120000      -0.57340000      -1.25650000
O        0.52710000       0.04060000      -2.49860000
C        2.22570000      -1.02990000      -1.12970000
C        1.11450000      -2.04640000      -1.30990000
H        1.40860000       1.77380000       0.06010000
H        0.06250000       2.04480000      -1.05160000
H       -0.20820000       2.11090000       0.70620000
H       -0.20970000      -0.03280000       2.06560000
H        0.19550000      -1.57990000       1.34960000
H        1.45240000      -0.33490000       1.54350000
H       -1.79020000       0.31540000      -1.30920000
H       -0.23880000      -0.39230000      -2.88880000
H        2.85950000      -0.82560000      -1.98450000
H        2.72090000      -0.97810000      -0.16800000
H        0.85350000      -2.67830000      -0.46980000
H        1.03050000      -2.52530000      -2.27960000
