18
Properties=species:S:1:pos:R:3 gdb_108347=T pbc="F F F"
C        0.01930000       1.34310000       0.21010000
O       -0.15860000      -0.02110000      -0.12260000
C        0.60730000      -0.48450000      -1.18060000
C        0.77800000      -2.01710000      -1.21740000
O        2.22310000      -1.89440000      -1.30610000
C        2.16060000      -0.46270000      -1.27860000
C        2.03820000       0.26260000      -2.65020000
N        1.22840000      -0.60100000      -3.53870000
C        0.54640000       0.26230000      -2.55100000
H        1.06280000       1.56190000       0.47690000
H       -0.27920000       2.01430000      -0.60640000
H       -0.61540000       1.53990000       1.07650000
H        0.47400000      -2.48830000      -0.27630000
H        0.35840000      -2.54110000      -2.07840000
H        2.83180000       0.00020000      -0.55100000
H        2.71650000       0.99860000      -3.06530000
H        1.17320000      -0.13110000      -4.44200000
H       -0.18570000       0.99690000      -2.86390000
