21
Properties=species:S:1:pos:R:3 gdb_106175=T pbc="F F F"
C        0.10300000       1.31770000       0.21070000
O       -0.16280000      -0.03570000      -0.11640000
C        0.56590000      -0.49990000      -1.18410000
C        0.95120000      -1.91670000      -1.50570000
C        0.43460000      -1.77300000      -2.93760000
C        0.33200000      -0.22670000      -2.70890000
C        1.60090000       0.48850000      -3.19400000
C        2.74650000      -0.19540000      -2.39100000
C        2.02690000      -0.85080000      -1.21370000
H        1.16470000       1.47150000       0.44880000
H       -0.17440000       1.99640000      -0.60830000
H       -0.50190000       1.55940000       1.08770000
H        0.88040000      -2.79780000      -0.87860000
H        1.08320000      -2.10530000      -3.75630000
H       -0.54890000      -2.23490000      -3.05530000
H       -0.60890000       0.23800000      -3.00380000
H        1.74090000       0.40670000      -4.27680000
H        1.54750000       1.55620000      -2.95040000
H        3.28150000      -0.93170000      -3.00090000
H        3.49090000       0.53010000      -2.04870000
H        2.53610000      -0.98910000      -0.26610000
