19
Properties=species:S:1:pos:R:3 gdb_7164=T pbc="F F F"
C        0.01730000       1.58590000      -0.03240000
C        0.01110000       0.05570000      -0.00770000
C        0.69520000      -0.52520000       1.23440000
C        0.75230000      -2.05730000       1.22980000
O        1.42930000      -2.57150000       0.09680000
C        1.37520000      -2.58990000       2.54240000
C        1.41820000      -4.04870000       2.60130000
N        1.44460000      -5.20220000       2.65880000
H        1.03990000       1.97970000      -0.02610000
H       -0.47970000       1.96880000      -0.92870000
H       -0.50120000       2.00210000       0.83870000
H       -1.02300000      -0.31020000      -0.04940000
H        0.50750000      -0.33900000      -0.90040000
H        1.72200000      -0.13410000       1.31070000
H        0.17420000      -0.18740000       2.14010000
H       -0.26460000      -2.45810000       1.14720000
H        2.32370000      -2.21100000       0.08740000
H        2.39670000      -2.20220000       2.64840000
H        0.80740000      -2.21950000       3.40350000
