21
Properties=species:S:1:pos:R:3 gdb_69945=T pbc="F F F"
C        0.04180000       1.58250000       0.07030000
C        0.10850000       0.08360000      -0.01910000
C       -0.92780000      -0.81470000       0.60530000
C        0.51550000      -0.84880000       1.09500000
C        1.47120000      -1.86640000       0.49590000
C        0.95280000      -3.30220000       0.18040000
C        0.76100000      -2.90330000      -1.31370000
C        1.44580000      -1.53460000      -1.02870000
O        0.68110000      -0.35670000      -1.23440000
H        1.04080000       2.02110000      -0.01940000
H       -0.58080000       1.99040000      -0.73300000
H       -0.39160000       1.89270000       1.02520000
H       -1.65580000      -0.35870000       1.26900000
H       -1.31520000      -1.64610000       0.02770000
H        0.72180000      -0.46920000       2.08940000
H        2.44170000      -1.81730000       0.99440000
H        1.71290000      -4.07310000       0.32720000
H        0.05190000      -3.60330000       0.71970000
H        1.27420000      -3.53570000      -2.04230000
H       -0.27880000      -2.79150000      -1.62930000
H        2.40950000      -1.40730000      -1.53140000
