23
Properties=species:S:1:pos:R:3 gdb_58739=T pbc="F F F"
C        0.00570000       1.53130000      -0.10750000
C        0.00790000      -0.00450000      -0.07890000
C       -1.41940000      -0.57180000      -0.09710000
C        0.81780000      -0.55900000      -1.22300000
C        2.26380000      -0.22340000      -1.67690000
C        1.58480000      -1.08640000      -2.77080000
C        2.04120000      -1.40260000      -4.16060000
C        1.04020000      -2.02950000      -1.66780000
O        0.35950000      -0.25550000      -2.61260000
H        1.01910000       1.93480000      -0.02080000
H       -0.42120000       1.89470000      -1.04720000
H       -0.58910000       1.93270000       0.71870000
H        0.50580000      -0.33730000       0.84320000
H       -1.91950000      -0.31640000      -1.03630000
H       -1.41820000      -1.66200000      -0.00310000
H       -2.00890000      -0.16260000       0.72900000
H        2.43720000       0.81750000      -1.95430000
H        3.09500000      -0.66060000      -1.11600000
H        2.94770000      -2.01550000      -4.13240000
H        1.26700000      -1.95400000      -4.70290000
H        2.26210000      -0.48270000      -4.71070000
H        1.75700000      -2.63540000      -1.10600000
H        0.13650000      -2.57830000      -1.93720000
