23
Properties=species:S:1:pos:R:3 gdb_101565=T pbc="F F F"
C       -0.14360000       1.57320000      -0.03590000
C       -0.16310000       0.07370000       0.24940000
C        0.76700000      -0.34720000       1.38080000
O        1.34520000       0.46430000       2.06770000
C        0.94080000      -1.85110000       1.57880000
C        1.56540000      -2.24480000       2.92240000
C        0.59950000      -2.01210000       4.09130000
C        2.04380000      -3.69610000       2.87500000
O        2.71600000      -3.98650000       4.09090000
H        0.85350000       1.90020000      -0.34290000
H       -0.84980000       1.82590000      -0.83170000
H       -0.40850000       2.14090000       0.85920000
H       -1.17400000      -0.26110000       0.52380000
H        0.09340000      -0.51100000      -0.64440000
H       -0.02790000      -2.34700000       1.42850000
H        1.57260000      -2.19330000       0.74410000
H        2.44740000      -1.61280000       3.07610000
H        0.33320000      -0.95540000       4.17190000
H       -0.32360000      -2.59100000       3.95720000
H        1.05870000      -2.32700000       5.03050000
H        1.18010000      -4.36750000       2.72880000
H        2.71530000      -3.83490000       2.01140000
H        2.94970000      -4.91880000       4.09220000
