22
Properties=species:S:1:pos:R:3 gdb_101797=T pbc="F F F"
C       -0.18190000       1.40460000       0.11560000
O       -0.02260000       0.00560000       0.18370000
C       -1.22970000      -0.74550000       0.05820000
C       -1.73480000      -0.79770000      -1.38350000
C       -0.90460000      -2.14040000       0.59210000
N       -0.39800000      -2.08470000       1.94700000
C       -0.97170000      -2.76290000       2.98250000
C       -0.33210000      -2.52260000       4.34240000
O       -1.91860000      -3.51750000       2.84010000
H        0.79260000       1.85020000       0.33160000
H       -0.50480000       1.74540000      -0.87820000
H       -0.91030000       1.76660000       0.85770000
H       -1.99840000      -0.29240000       0.70590000
H       -1.97250000       0.19920000      -1.76390000
H       -0.97780000      -1.24290000      -2.03690000
H       -2.64590000      -1.40120000      -1.44480000
H       -1.79810000      -2.76740000       0.61000000
H       -0.16750000      -2.60920000      -0.07390000
H        0.33670000      -1.41890000       2.12100000
H        0.05280000      -3.47300000       4.72220000
H        0.48140000      -1.79270000       4.32430000
H       -1.10380000      -2.18310000       5.03800000
