21
Properties=species:S:1:pos:R:3 gdb_95290=T pbc="F F F"
C       -0.34290000       1.51050000      -0.01940000
C        0.11080000       0.05310000      -0.02670000
C        1.07670000      -0.32130000      -1.16270000
O        1.69180000      -1.54050000      -0.76100000
C        1.88300000      -1.47280000       0.63930000
C        3.05220000      -0.56950000       1.13330000
C        2.02900000       0.39600000       1.79580000
C        0.85340000      -0.46330000       1.22780000
O       -0.00820000      -1.02710000       2.19360000
H        0.50390000       2.20300000       0.02270000
H       -0.91670000       1.74680000      -0.92150000
H       -0.99020000       1.72330000       0.83910000
H       -0.76770000      -0.59790000      -0.11150000
H        0.57820000      -0.49650000      -2.11980000
H        1.82820000       0.47260000      -1.31340000
H        1.85920000      -2.48560000       1.04450000
H        3.74410000      -1.05660000       1.82310000
H        3.62990000      -0.13890000       0.31220000
H        2.04280000       0.36500000       2.88730000
H        2.07520000       1.43930000       1.47490000
H       -0.55340000      -0.32110000       2.55820000
