23
Properties=species:S:1:pos:R:3 gdb_116499=T pbc="F F F"
C        0.09960000       1.57630000       0.00860000
C       -0.00990000       0.04760000       0.03840000
C       -1.44800000      -0.51050000      -0.00120000
C       -1.42320000      -2.03890000      -0.19970000
C       -2.71430000      -2.65560000      -0.75740000
O       -3.93480000      -2.09930000      -0.28230000
C       -3.99410000      -1.71130000       1.06060000
O       -3.60040000      -0.38290000       1.26660000
C       -2.20450000      -0.14410000       1.29000000
H        1.14740000       1.88650000      -0.05370000
H       -0.42180000       1.99150000      -0.86090000
H       -0.32320000       2.04420000       0.90250000
H        0.53470000      -0.35850000      -0.82260000
H        0.50510000      -0.34290000       0.92760000
H       -1.97920000      -0.04620000      -0.84310000
H       -0.62070000      -2.31290000      -0.89580000
H       -1.15730000      -2.51160000       0.75470000
H       -2.75250000      -2.51040000      -1.84240000
H       -2.70250000      -3.74180000      -0.57620000
H       -5.04940000      -1.75150000       1.34270000
H       -3.41270000      -2.39520000       1.70400000
H       -1.74200000      -0.68660000       2.13420000
H       -2.11260000       0.92470000       1.49720000
