20
Properties=species:S:1:pos:R:3 gdb_60605=T pbc="F F F"
C       -0.98140000      -3.11960000      -0.85430000
C       -1.21720000      -1.78200000      -1.56500000
C        0.10600000      -1.24390000      -2.13880000
C        0.34280000      -0.90410000      -3.59320000
C        0.30850000       0.19390000      -2.56190000
N       -0.85530000       1.06130000      -2.55130000
H       -2.20130000      -0.03410000      -2.89810000
H       -0.94200000       1.53910000      -1.65900000
H       -0.78260000       1.77600000      -3.26970000
C       -2.34730000      -1.93410000      -2.60240000
O       -2.76640000      -0.80190000      -3.18230000
O       -2.84900000      -2.99600000      -2.86880000
H       -0.61460000      -3.87050000      -1.55870000
H       -0.24630000      -3.00160000      -0.05180000
H       -1.91060000      -3.49990000      -0.42620000
H       -1.58200000      -1.05560000      -0.82370000
H        0.96580000      -1.67300000      -1.63260000
H        1.29920000      -1.16200000      -4.03330000
H       -0.49750000      -0.96560000      -4.27520000
H        1.25830000       0.65460000      -2.29380000
