20
Properties=species:S:1:pos:R:3 gdb_64077=T pbc="F F F"
C       -0.01260000       1.53050000      -0.01380000
C       -0.05910000      -0.00820000      -0.00100000
C       -1.53380000      -0.47920000       0.10990000
N        0.61280000      -0.47460000      -1.22140000
C        0.94520000      -1.89370000      -1.26600000
C        1.82890000      -2.28230000      -0.08520000
O        2.61090000      -3.20870000      -0.14580000
C        1.59680000      -1.51290000       1.15150000
C        0.70670000      -0.51580000       1.19610000
H        1.02130000       1.87890000      -0.06930000
H       -0.55070000       1.91530000      -0.88720000
H       -0.48510000       1.94910000       0.88050000
H       -2.12250000      -0.05970000      -0.71370000
H       -1.60820000      -1.56950000       0.07010000
H       -1.98990000      -0.14870000       1.04870000
H        0.06440000      -0.21480000      -2.03430000
H        0.07260000      -2.57580000      -1.24370000
H        1.49230000      -2.11100000      -2.18690000
H        2.14750000      -1.83650000       2.02930000
H        0.49350000      -0.01390000       2.13770000
