18
Properties=species:S:1:pos:R:3 gdb_47421=T pbc="F F F"
N        0.10970000       1.34530000      -0.26340000
C        0.04040000       0.08570000      -0.21880000
O        1.11180000      -0.75800000      -0.28190000
C        0.69130000      -2.12710000      -0.14360000
C       -0.80470000      -2.13320000      -0.48510000
C       -1.24560000      -0.71470000      -0.07610000
C       -1.76810000      -0.63910000       1.34550000
C       -2.77730000       0.34400000       1.74120000
O       -3.12790000      -1.03050000       1.53180000
H        1.08170000       1.65000000      -0.34250000
H        1.30130000      -2.73350000      -0.81670000
H        0.88320000      -2.45220000       0.88650000
H       -0.94490000      -2.27530000      -1.56010000
H       -1.35590000      -2.91900000       0.03530000
H       -2.01040000      -0.30660000      -0.73880000
H       -1.08900000      -1.01220000       2.11520000
H       -2.82540000       0.68590000       2.77340000
H       -3.15630000       1.04380000       0.99910000
