15
Properties=species:S:1:pos:R:3 gdb_37549=T pbc="F F F"
C        0.01900000       1.51790000       0.08970000
N        1.47590000       1.86090000       0.03200000
C        2.09630000       0.86330000      -0.48690000
N        1.29110000      -0.18050000      -0.95950000
C        1.05030000      -1.55770000      -0.42510000
C        0.47130000      -1.08090000       0.93880000
O       -0.77380000      -1.82060000       0.79960000
C       -0.51360000      -1.37330000      -0.55020000
C        0.07320000       0.02400000      -0.12680000
H       -0.40490000       1.81120000       1.05180000
H       -0.51130000       2.05710000      -0.70500000
H        3.16640000       0.87580000      -0.67180000
H        1.65470000      -2.42960000      -0.67070000
H        0.92920000      -1.00210000       1.92430000
H       -1.19530000      -1.64940000      -1.35270000
