16
Properties=species:S:1:pos:R:3 gdb_44933=T pbc="F F F"
N       -0.04500000       1.27910000      -0.05990000
C       -0.00400000       0.02110000      -0.02060000
O        1.11410000      -0.76670000      -0.01580000
C        0.62420000      -2.11530000       0.21360000
O       -0.61870000      -2.14260000      -0.44230000
C       -1.20400000      -0.92200000       0.02950000
C       -1.70620000      -1.12570000       1.47010000
C       -0.66350000      -1.86520000       2.27650000
C        0.44240000      -2.33500000       1.70120000
H        0.89590000       1.67610000      -0.06450000
H        1.31020000      -2.81160000      -0.26850000
H       -1.99450000      -0.61600000      -0.65440000
H       -1.92820000      -0.15270000       1.92220000
H       -2.64680000      -1.69200000       1.45850000
H       -0.84770000      -2.00320000       3.33810000
H        1.22380000      -2.84430000       2.25360000
