15
Properties=species:S:1:pos:R:3 gdb_57589=T pbc="F F F"
C       -0.30630000       1.68080000       0.27670000
C        0.14890000       0.24720000       0.01930000
O        1.18090000      -0.05550000       0.94630000
C       -1.03410000      -0.70340000       0.22760000
O       -1.67680000      -1.18440000      -0.66900000
C        0.67000000       0.06900000      -1.41920000
O        0.62320000       0.90560000      -2.28360000
C        1.32360000      -1.28300000      -1.74820000
O        1.55250000      -2.13250000      -0.92280000
H        0.55220000       2.35120000       0.19270000
H       -1.06200000       1.98290000      -0.45030000
H       -0.71570000       1.76280000       1.28690000
H        1.45990000      -0.96770000       0.77910000
H       -1.23890000      -0.91490000       1.30050000
H        1.57610000      -1.39630000      -2.82070000
