21
Properties=species:S:1:pos:R:3 gdb_69494=T pbc="F F F"
C       -0.06640000       1.52870000       0.08420000
C       -0.04670000       0.02090000       0.09730000
C       -1.31660000      -0.74160000      -0.30170000
C       -1.28080000      -2.02700000       0.51850000
N       -1.37570000      -1.90520000       1.98430000
C       -0.04770000      -2.07440000       1.36220000
C        0.70980000      -3.32830000       1.72020000
C        0.70820000      -0.79930000       1.09070000
N        1.23260000      -0.61070000      -0.27650000
H        0.90080000       1.92920000       0.39720000
H       -0.27450000       1.90630000      -0.92360000
H       -0.84160000       1.91940000       0.75310000
H       -2.21740000      -0.15370000      -0.08260000
H       -1.33490000      -0.94930000      -1.37950000
H       -1.73180000      -2.92800000       0.11270000
H       -1.52620000      -0.93200000       2.24540000
H        0.02360000      -4.17130000       1.83150000
H        1.45110000      -3.57640000       0.95260000
H        1.24250000      -3.20200000       2.66950000
H        1.31330000      -0.35930000       1.88080000
H        1.07050000      -1.45180000      -0.82870000
