13
Properties=species:S:1:pos:R:3 gdb_61136=T pbc="F F F"
O       -0.08460000       1.43940000       0.00700000
C        0.00660000       0.03260000       0.00810000
C        0.68580000      -0.52150000      -1.27620000
C       -0.01000000      -0.08930000      -2.48460000
N       -0.56360000       0.24110000      -3.44250000
C        0.70070000      -0.47820000       1.19420000
C        1.30520000      -0.87130000       2.16310000
C        1.98300000      -1.31790000       3.26190000
N        2.56280000      -1.69850000       4.19320000
H        0.80040000       1.81110000       0.10390000
H       -1.03030000      -0.32190000       0.02640000
H        1.72670000      -0.18130000      -1.31350000
H        0.70630000      -1.61580000      -1.23890000
