19
Properties=species:S:1:pos:R:3 gdb_72307=T pbc="F F F"
C        0.02620000       1.43690000       0.03210000
C       -0.07460000      -0.06280000      -0.12030000
C        0.83680000      -0.78430000      -1.13710000
C        0.31090000      -2.20680000      -1.00240000
C       -0.85770000      -2.19810000      -0.32790000
C       -0.75420000      -2.39380000       1.19710000
C       -0.68560000      -0.82380000       1.17780000
C       -1.37670000      -0.74870000      -0.15450000
O       -2.56840000      -0.19640000      -0.57370000
H        0.98260000       1.73090000       0.47880000
H       -0.04710000       1.92390000      -0.94700000
H       -0.77930000       1.83510000       0.65490000
H        0.76740000      -0.29540000      -2.12060000
H        1.90070000      -0.78840000      -0.86560000
H        1.01090000      -3.03620000      -0.93590000
H       -1.65950000      -2.71170000       1.72910000
H        0.10570000      -2.96740000       1.55370000
H       -0.86410000      -0.20150000       2.05160000
H       -3.29320000      -0.71360000      -0.20450000
