18
Properties=species:S:1:pos:R:3 gdb_90746=T pbc="F F F"
C        0.40860000       1.45470000      -0.31650000
C        0.07930000       0.02500000       0.06010000
O        0.66800000      -0.93900000      -0.85340000
C        1.31750000      -1.64460000       0.22640000
C        0.77920000      -0.64830000       1.27280000
C        2.03350000       0.01290000       1.84680000
O        3.12060000      -0.32190000       0.96450000
C        2.81550000      -1.42510000       0.21110000
N        3.64910000      -2.12580000      -0.42360000
H        1.48910000       1.61760000      -0.35630000
H       -0.00230000       1.67480000      -1.30650000
H       -0.03400000       2.15770000       0.39790000
H       -1.00970000      -0.11340000       0.09230000
H        1.04670000      -2.70150000       0.25990000
H        0.11000000      -1.02160000       2.04660000
H        1.97470000       1.10240000       1.90550000
H        2.26270000      -0.37630000       2.84600000
H        4.59690000      -1.76500000      -0.29610000
