13
Properties=species:S:1:pos:R:3 gdb_99420=T pbc="F F F"
C        0.06470000       1.48350000       0.00430000
N       -0.01850000       0.01970000       0.05380000
C       -1.36940000      -0.52820000       0.01570000
C       -1.27380000      -2.00670000      -0.00070000
N       -1.17460000      -3.15520000      -0.03610000
C       -2.10770000      -0.10830000       1.23390000
N       -2.67640000       0.23360000       2.17730000
C       -2.15880000      -0.09690000      -1.18080000
N       -2.68390000       0.28640000      -2.13520000
H        1.12170000       1.75460000       0.02230000
H       -0.40270000       1.92460000      -0.88720000
H       -0.40810000       1.90360000       0.89600000
H        0.52200000      -0.40560000      -0.69250000
