17
Properties=species:S:1:pos:R:3 gdb_53407=T pbc="F F F"
C        0.13100000       1.56560000      -0.26420000
C        0.07440000       0.12680000      -0.05790000
C        0.02630000      -1.06390000       0.11810000
C       -0.01800000      -2.50110000       0.31160000
O       -0.16900000      -2.91150000       1.69570000
C       -1.26380000      -3.78520000       1.36740000
C       -1.31290000      -3.28440000      -0.09670000
C       -2.51290000      -2.42830000      -0.41070000
O       -3.20980000      -2.56800000      -1.38200000
H        1.06030000       1.86040000      -0.76320000
H       -0.70590000       1.90990000      -0.88120000
H        0.08120000       2.09820000       0.69160000
H        0.87700000      -2.96350000      -0.12650000
H       -0.99910000      -4.84450000       1.46850000
H       -2.15040000      -3.57720000       1.97860000
H       -1.17930000      -4.03120000      -0.87860000
H       -2.72780000      -1.64540000       0.35000000
