22
Properties=species:S:1:pos:R:3 gdb_9838=T pbc="F F F"
C        0.31360000       1.30570000       0.53810000
C       -0.04240000      -0.08800000       0.00450000
C       -1.55600000      -0.18960000      -0.22870000
O       -2.21080000      -0.04330000       1.02570000
C        0.72420000      -0.53130000      -1.25110000
C        0.76280000      -2.03860000      -1.45180000
C        0.66290000       0.31850000      -2.50250000
C        1.94950000       0.21990000      -1.72030000
H        1.34660000       1.34950000       0.89300000
H        0.18400000       2.08060000      -0.22700000
H       -0.34560000       1.55160000       1.37340000
H        0.19110000      -0.81120000       0.79830000
H       -1.86960000       0.59690000      -0.93380000
H       -1.80770000      -1.15760000      -0.68570000
H       -3.15920000      -0.03150000       0.86990000
H       -0.24040000      -2.47240000      -1.52540000
H        1.29860000      -2.29970000      -2.36980000
H        1.27460000      -2.53090000      -0.61640000
H        0.59620000      -0.18480000      -3.46150000
H        0.12690000       1.26120000      -2.46390000
H        2.27600000       1.09760000      -1.17620000
H        2.76200000      -0.36360000      -2.14090000
