18
Properties=species:S:1:pos:R:3 gdb_12147=T pbc="F F F"
C        0.39510000       1.51250000       0.00640000
C        1.32350000       0.31660000      -0.00910000
C       -0.16420000       0.12410000       0.00430000
C       -0.97040000      -0.57850000       1.11350000
C       -1.58380000      -1.45020000       0.00960000
C       -1.83260000      -2.89150000       0.00420000
O       -2.90960000      -1.94120000       0.01980000
C       -0.99180000      -0.56650000      -1.09650000
H        0.32370000       2.09200000       0.92160000
H        0.30600000       2.10180000      -0.90090000
H        1.86080000       0.09950000      -0.92710000
H        1.87850000       0.08960000       0.89600000
H       -0.40320000      -1.09450000       1.89340000
H       -1.71860000       0.06810000       1.58400000
H       -1.72470000      -3.45820000      -0.92030000
H       -1.70680000      -3.46810000       0.92020000
H       -1.74900000       0.08500000      -1.54530000
H       -0.43990000      -1.07400000      -1.89280000
