19
Properties=species:S:1:pos:R:3 gdb_109138=T pbc="F F F"
O        0.12080000       1.44010000       0.05870000
C        0.05310000       0.02880000       0.07850000
C       -1.37460000      -0.44070000       0.00290000
C       -2.40790000       0.40140000      -0.00420000
C       -3.84630000      -0.02960000      -0.11830000
C       -4.03930000      -1.53560000      -0.25510000
O       -4.99250000      -2.01360000      -0.82360000
C       -2.95290000      -2.37940000       0.38900000
C       -1.55430000      -1.93880000      -0.08020000
H        1.04350000       1.69720000       0.13680000
H        0.61520000      -0.41200000      -0.76500000
H        0.51220000      -0.38130000       0.99650000
H       -2.21660000       1.46780000       0.05070000
H       -4.41010000       0.29310000       0.77170000
H       -4.34750000       0.45330000      -0.96550000
H       -3.02060000      -2.22940000       1.47540000
H       -3.14800000      -3.43270000       0.17620000
H       -1.38590000      -2.27630000      -1.11310000
H       -0.79030000      -2.44690000       0.52220000
