19
Properties=species:S:1:pos:R:3 gdb_104632=T pbc="F F F"
C        0.04600000       1.56100000       0.07730000
N        0.12280000       0.11830000       0.06800000
C        1.06180000      -0.53740000      -0.85310000
C        1.36760000      -1.59610000       0.25340000
C        2.84130000      -1.94890000       0.50730000
O        3.01760000      -2.68620000       1.69590000
C        0.70610000      -0.57170000       1.22950000
C        0.59660000      -2.82600000       0.11150000
N        0.04440000      -3.83840000       0.02000000
H        1.02460000       2.04800000       0.25180000
H       -0.34640000       1.91700000      -0.88080000
H       -0.64220000       1.88860000       0.86320000
H        0.62670000      -0.89310000      -1.79130000
H        1.96330000       0.05950000      -1.07480000
H        3.24810000      -2.47280000      -0.37110000
H        3.40480000      -1.01970000       0.63360000
H        2.60190000      -3.54850000       1.57870000
H        1.48090000       0.00830000       1.75670000
H       -0.01600000      -0.95210000       1.95670000
