22
Properties=species:S:1:pos:R:3 gdb_110530=T pbc="F F F"
C       -0.06190000       1.52030000      -0.05720000
C        0.06160000      -0.00090000       0.08820000
C        0.71590000      -0.63870000      -1.12850000
C        0.88070000      -2.16400000      -1.29240000
C       -0.56690000      -2.71100000      -1.19740000
C       -0.83570000      -1.89410000      -2.45840000
N       -0.04750000      -0.59900000      -2.42670000
C        0.60010000      -1.87890000      -2.82990000
C        1.36040000      -2.10350000      -4.09170000
H        0.92360000       1.99050000      -0.14800000
H       -0.63430000       1.77490000      -0.95400000
H       -0.56480000       1.96300000       0.80780000
H        0.66000000      -0.24830000       0.97580000
H       -0.93170000      -0.43140000       0.25180000
H        1.67190000      -0.13900000      -1.32920000
H        1.71500000      -2.71040000      -0.85420000
H       -0.59910000      -3.77940000      -1.42780000
H       -1.14180000      -2.51830000      -0.28680000
H       -1.70910000      -1.89260000      -3.09790000
H        2.35200000      -1.63850000      -4.05000000
H        1.49860000      -3.17240000      -4.28900000
H        0.81910000      -1.66540000      -4.93600000
