14
Properties=species:S:1:pos:R:3 gdb_70141=T pbc="F F F"
O        0.01250000       1.36030000      -0.09810000
C        0.01960000      -0.02190000      -0.05760000
C       -0.47930000      -0.76030000      -1.27370000
C       -1.30860000      -0.80760000      -0.01590000
N       -1.35440000      -2.03590000       0.69590000
C       -0.27620000      -2.50990000       1.13940000
O        0.97380000      -1.91670000       1.12570000
C        1.09010000      -0.59220000       0.78510000
O        2.00790000       0.05950000       1.20930000
H        0.79240000       1.64160000       0.40310000
H       -0.82710000      -0.10530000      -2.06400000
H        0.01120000      -1.67250000      -1.59490000
H       -2.22050000      -0.22220000       0.00820000
H       -0.21460000      -3.47560000       1.62960000
