20
Properties=species:S:1:pos:R:3 gdb_22960=T pbc="F F F"
C        0.03320000       1.54860000      -0.05360000
C       -0.04570000       0.03260000       0.14170000
C       -1.40730000      -0.54880000      -0.25610000
C       -1.48830000      -2.04950000      -0.02190000
O       -1.39450000      -2.41700000       1.38840000
C       -2.68220000      -3.07660000       1.37910000
C       -2.84720000      -2.70930000      -0.07300000
N       -3.70060000      -2.82940000      -0.99470000
O       -4.83780000      -3.51940000      -0.53850000
H        1.01400000       1.93610000       0.23890000
H       -0.13570000       1.82440000      -1.10060000
H       -0.72180000       2.06510000       0.54950000
H        0.74200000      -0.45700000      -0.44620000
H        0.15010000      -0.22050000       1.18980000
H       -2.20690000      -0.05800000       0.31220000
H       -1.61060000      -0.36030000      -1.31850000
H       -0.71570000      -2.57250000      -0.60460000
H       -2.61070000      -4.15160000       1.58870000
H       -3.40000000      -2.62300000       2.07400000
H       -5.39400000      -3.53990000      -1.32490000
