18
Properties=species:S:1:pos:R:3 gdb_75941=T pbc="F F F"
C        0.54120000       1.42420000       0.01520000
C        0.12330000      -0.01350000      -0.09650000
C       -0.06590000      -0.63910000      -1.25660000
C       -0.51650000      -2.06410000      -1.32200000
O       -0.12840000      -2.85640000      -0.18810000
C        0.08860000      -2.29300000       1.01520000
O        0.46690000      -2.97500000       1.93100000
C       -0.17280000      -0.78130000       1.17950000
N        0.50510000      -0.22580000       2.34610000
H        1.49920000       1.52980000       0.53440000
H        0.63190000       1.88010000      -0.97410000
H       -0.18400000       1.99510000       0.60530000
H        0.07280000      -0.12790000      -2.20460000
H       -1.61000000      -2.13350000      -1.42580000
H       -0.08230000      -2.57660000      -2.18600000
H       -1.25550000      -0.69100000       1.37130000
H        0.26770000      -0.80880000       3.14460000
H        1.50860000      -0.35510000       2.23270000
