19
Properties=species:S:1:pos:R:3 gdb_68064=T pbc="F F F"
C        0.00580000       1.43270000       0.11680000
C       -0.03540000      -0.05250000      -0.05870000
C        0.60290000      -0.94240000      -1.15220000
C        0.05620000      -1.85430000      -0.02760000
C        0.24770000      -3.32070000       0.19890000
O        0.62400000      -0.90470000       0.96720000
C       -1.27040000      -1.01820000      -0.02440000
C       -2.10500000      -1.03910000       1.22000000
O       -3.31190000      -1.10030000       1.20920000
H        1.04240000       1.78280000       0.12650000
H       -0.51940000       1.92460000      -0.70750000
H       -0.47000000       1.72900000       1.05620000
H        0.12140000      -0.98380000      -2.13250000
H        1.69170000      -0.88790000      -1.20760000
H        1.31450000      -3.56320000       0.21880000
H       -0.19730000      -3.63120000       1.14870000
H       -0.22350000      -3.89140000      -0.60720000
H       -1.89480000      -1.06540000      -0.92010000
H       -1.53360000      -0.99400000       2.16820000
