20
Properties=species:S:1:pos:R:3 gdb_100588=T pbc="F F F"
C       -0.13930000       1.60570000       0.22650000
C       -0.05120000       0.07850000       0.16300000
C       -1.40430000      -0.60930000      -0.07690000
C       -2.01550000      -0.30330000      -1.46140000
C       -1.27130000      -2.11010000       0.08780000
O       -0.25060000      -2.74050000       0.13180000
O       -2.52250000      -2.68540000       0.17370000
C       -2.60220000      -4.04920000       0.29640000
N       -3.74600000      -4.56880000       0.36280000
H        0.83940000       2.03700000       0.45630000
H       -0.47300000       2.04010000      -0.72080000
H       -0.83640000       1.93260000       1.00650000
H        0.64700000      -0.22810000      -0.62400000
H        0.37190000      -0.30150000       1.09910000
H       -2.12490000      -0.28060000       0.68360000
H       -2.96330000      -0.82900000      -1.59500000
H       -2.20350000       0.76760000      -1.56670000
H       -1.33290000      -0.60860000      -2.26160000
H       -1.62460000      -4.53100000       0.32330000
H       -3.65860000      -5.58020000       0.45290000
