23
Properties=species:S:1:pos:R:3 gdb_101943=T pbc="F F F"
C       -1.38180000      -2.12810000      -0.65200000
C       -0.42430000      -1.01210000      -0.21450000
C        0.75800000      -0.72460000      -1.16860000
C        1.71270000      -1.90070000      -1.29760000
C        3.15320000      -1.66590000      -1.67320000
C        2.80200000      -2.11020000      -0.27450000
C        0.28830000      -0.25960000      -2.53460000
C       -0.02840000       1.14690000      -2.81300000
O        1.19200000       0.56560000      -3.27660000
H       -1.86700000      -1.90050000      -1.60670000
H       -0.86730000      -3.08810000      -0.75920000
H       -2.17390000      -2.26440000       0.09070000
H       -0.99550000      -0.08500000      -0.08060000
H       -0.00840000      -1.26280000       0.76860000
H        1.32480000       0.11390000      -0.74150000
H        1.26480000      -2.80460000      -1.70250000
H        3.63650000      -2.37770000      -2.33330000
H        3.46810000      -0.63920000      -1.82130000
H        2.89130000      -1.38220000       0.52590000
H        3.04560000      -3.12420000       0.02280000
H       -0.20560000      -1.01450000      -3.14870000
H       -0.75010000       1.40360000      -3.58740000
H        0.07980000       1.88660000      -2.02000000
