20
Properties=species:S:1:pos:R:3 gdb_66936=T pbc="F F F"
C       -0.00820000       1.51560000       0.10560000
C       -0.07830000       0.02390000       0.04320000
C        0.09970000      -1.00720000       1.09720000
C       -0.46750000      -2.05000000       0.05390000
C        0.96490000      -2.06750000      -0.50490000
N        1.22730000      -0.74270000       0.15460000
C       -1.07120000      -0.85260000      -0.69320000
C       -2.52500000      -0.55560000      -0.87560000
C       -1.62240000      -0.76720000      -2.08150000
H        0.76490000       1.82950000       0.81160000
H        0.24250000       1.93900000      -0.87370000
H       -0.96440000       1.94250000       0.42680000
H        0.17570000      -0.96660000       2.17650000
H       -1.05160000      -2.94850000       0.24770000
H        1.61250000      -2.81380000      -0.03690000
H        1.09270000      -2.08700000      -1.59350000
H       -3.24520000      -1.33180000      -0.63680000
H       -2.87930000       0.45140000      -0.67780000
H       -1.37600000       0.09840000      -2.68860000
H       -1.73870000      -1.68660000      -2.64740000
