21
Properties=species:S:1:pos:R:3 gdb_109777=T pbc="F F F"
C       -0.48390000       1.07530000      -2.25580000
C       -0.30930000      -0.11340000      -1.33270000
C        1.02370000      -0.53710000      -0.77050000
C        2.32860000       0.18850000      -1.03540000
O        3.24400000       0.03870000       0.03240000
C       -0.04020000       0.04220000       0.15620000
C        0.11210000       1.39110000       0.79220000
C        0.23860000       1.53390000       2.24970000
O        1.37990000       1.72000000       1.41290000
H        0.17710000       1.90920000      -2.00780000
H       -0.27260000       0.79140000      -3.29210000
H       -1.51390000       1.44770000      -2.21920000
H       -0.98100000      -0.93330000      -1.57580000
H        1.16800000      -1.60850000      -0.65730000
H        2.81060000      -0.24780000      -1.91810000
H        2.15190000       1.25000000      -1.25970000
H        2.84840000       0.50970000       0.77950000
H       -0.53110000      -0.68430000       0.79720000
H       -0.30500000       2.24030000       0.25360000
H       -0.12210000       2.43250000       2.74750000
H        0.25520000       0.63640000       2.86670000
