18
Properties=species:S:1:pos:R:3 gdb_81699=T pbc="F F F"
O        0.17740000       1.18750000       0.19780000
C        0.04860000      -0.19380000      -0.06680000
C       -1.45190000      -0.57460000      -0.09870000
C       -1.44330000      -0.34110000      -1.63550000
C        0.09430000      -0.51690000      -1.59210000
O        0.54520000      -1.83400000      -1.88650000
C       -0.01130000      -2.91720000      -1.27680000
N       -0.90990000      -3.06560000      -0.40520000
C       -1.68230000      -2.03910000       0.26820000
H        1.09930000       1.43390000       0.06700000
H        0.70680000      -0.80010000       0.57090000
H       -2.09660000       0.07270000       0.50120000
H       -1.99970000      -1.03850000      -2.26580000
H       -1.70930000       0.68380000      -1.89950000
H        0.70690000       0.14050000      -2.21250000
H        0.48040000      -3.80210000      -1.68140000
H       -1.51330000      -2.17110000       1.34650000
H       -2.74110000      -2.28310000       0.10590000
