13
Properties=species:S:1:pos:R:3 gdb_24737=T pbc="F F F"
O        0.04040000      -0.05410000       0.00430000
C       -0.03920000       1.16270000       0.00810000
C        1.14270000       2.00820000       0.00170000
C        2.14310000       2.67640000      -0.00370000
C       -1.33280000       1.84150000       0.01940000
C       -2.60750000       1.33890000       0.02740000
C       -3.48070000       2.45970000       0.03680000
C       -2.67420000       3.56210000       0.03390000
O       -1.37390000       3.20830000       0.02340000
H        3.02980000       3.26250000      -0.00810000
H       -2.86290000       0.29160000       0.02650000
H       -4.55910000       2.45510000       0.04470000
H       -2.87200000       4.62200000       0.03820000
