20
Properties=species:S:1:pos:R:3 gdb_59512=T pbc="F F F"
C       -0.00920000      -3.03060000       1.03700000
C       -0.24990000      -1.60130000       1.52340000
O        0.78630000      -0.71790000       1.09010000
C       -1.61010000      -1.08910000       1.08820000
C       -2.79890000      -1.17030000       1.98630000
N       -2.20540000       0.11910000       1.64970000
C       -1.50240000       0.85620000       2.69040000
C       -2.34650000       2.03530000       3.14640000
O       -2.27130000       2.53800000       4.23680000
H        0.99190000      -3.36150000       1.32480000
H       -0.74500000      -3.72100000       1.46070000
H       -0.08790000      -3.08760000      -0.05570000
H       -0.18180000      -1.57990000       2.61580000
H        0.77450000      -0.69920000       0.12620000
H       -1.77860000      -1.18320000       0.01290000
H       -3.78960000      -1.36530000       1.58460000
H       -2.63300000      -1.55670000       2.99210000
H       -1.22050000       0.27010000       3.57710000
H       -0.57390000       1.25680000       2.26190000
H       -3.04280000       2.41270000       2.36470000
