14
Properties=species:S:1:pos:R:3 gdb_1875=T pbc="F F F"
C        0.07400000       1.54440000       0.06790000
C       -0.05540000       0.02280000      -0.04300000
C        0.77580000      -0.58960000      -1.19450000
O        1.99970000      -1.01890000      -0.58870000
C        1.82910000      -1.11820000       0.76660000
O        2.67450000      -1.52010000       1.51490000
N        0.54980000      -0.69580000       1.06830000
H        1.12650000       1.84300000       0.10960000
H       -0.39170000       2.03340000      -0.79410000
H       -0.42320000       1.91430000       0.97040000
H       -1.11020000      -0.25150000      -0.14940000
H        0.27410000      -1.45700000      -1.63740000
H        1.01000000       0.13160000      -1.98060000
H        0.37000000      -0.43810000       2.02570000
