18
Properties=species:S:1:pos:R:3 gdb_105712=T pbc="F F F"
C        0.01500000       1.56010000      -0.02710000
C       -0.04960000       0.03610000       0.06980000
C       -1.48460000      -0.54150000      -0.01640000
C       -1.49180000      -2.10000000       0.19330000
N       -1.96470000      -2.19210000       1.57740000
C       -2.52190000      -0.97030000       1.88800000
N       -2.31530000       0.00540000       1.08870000
C       -2.09050000      -0.19300000      -1.31160000
N       -2.54760000       0.05000000      -2.34470000
H        1.04860000       1.90370000       0.07260000
H       -0.36490000       1.91010000      -0.99190000
H       -0.58390000       2.02230000       0.76060000
H        0.55070000      -0.42420000      -0.72420000
H        0.36500000      -0.30410000       1.02590000
H       -2.17240000      -2.60070000      -0.50390000
H       -0.49240000      -2.52750000       0.07740000
H       -2.42360000      -3.03610000       1.88580000
H       -3.07420000      -0.86280000       2.81730000
