19
Properties=species:S:1:pos:R:3 gdb_6020=T pbc="F F F"
C        0.08630000       1.56480000      -0.04740000
C        0.00290000       0.03690000       0.08070000
N        0.67730000      -0.49310000       1.26890000
C       -1.47280000      -0.50480000       0.03480000
C       -2.27720000      -0.10780000       1.28620000
N       -2.23450000      -0.08740000      -1.15050000
C       -1.38790000      -1.98190000      -0.02320000
N       -1.32470000      -3.13190000      -0.11150000
H        1.13650000       1.86970000      -0.08320000
H       -0.39590000       1.93890000      -0.95560000
H       -0.37230000       2.06540000       0.81270000
H        0.50300000      -0.40560000      -0.78950000
H        1.67780000      -0.54940000       1.11570000
H        0.54010000       0.12430000       2.06330000
H       -2.37490000       0.98090000       1.34450000
H       -3.27890000      -0.53730000       1.22950000
H       -1.78810000      -0.47020000       2.19180000
H       -2.40080000       0.91300000      -1.11680000
H       -1.71260000      -0.28240000      -2.00020000
