16
Properties=species:S:1:pos:R:3 gdb_43798=T pbc="F F F"
O       -0.03660000       0.29860000      -0.92600000
C       -0.01160000       1.30520000      -0.28350000
C       -1.08120000       2.13140000       0.48400000
C       -0.01220000       3.22680000       0.66780000
C       -0.15220000       4.68390000       0.46940000
N        0.21500000       4.12640000       1.79030000
C        1.06160000       2.32310000       0.08920000
C        2.42730000       2.07740000       0.57990000
O        2.17900000       2.72080000      -0.67140000
H       -1.96460000       2.39150000      -0.10460000
H       -1.39940000       1.64130000       1.41040000
H        0.64240000       5.23160000      -0.02870000
H       -1.15200000       5.08690000       0.32980000
H       -0.59270000       4.13060000       2.40910000
H        2.80210000       2.72100000       1.37290000
H        2.84650000       1.07530000       0.51430000
