18
Properties=species:S:1:pos:R:3 gdb_93751=T pbc="F F F"
C        0.10450000       1.53320000       0.02630000
C       -0.01020000       0.04270000       0.02640000
C       -1.12560000      -0.74330000       0.04160000
C       -2.50340000      -0.36410000       0.03050000
O       -3.42260000      -1.17360000      -0.06570000
C       -0.71450000      -2.20610000       0.04160000
O       -1.32470000      -2.97630000      -0.97500000
C        0.81260000      -2.12950000      -0.20170000
N        1.13030000      -0.71230000       0.03750000
H        0.68990000       1.87060000       0.88850000
H        0.62160000       1.87980000      -0.87630000
H       -0.87420000       2.01120000       0.06300000
H       -2.72890000       0.72220000       0.09610000
H       -0.92520000      -2.65460000       1.02610000
H       -2.27320000      -2.80130000      -0.87920000
H        1.39250000      -2.77450000       0.46220000
H        1.01220000      -2.41510000      -1.24150000
H        1.99540000      -0.32330000      -0.30480000
