18
Properties=species:S:1:pos:R:3 gdb_74685=T pbc="F F F"
C        0.04440000       1.49020000       0.06200000
C       -0.00020000      -0.00410000       0.00760000
C       -0.00550000      -0.77000000      -1.08850000
C       -0.01880000      -2.24050000      -0.77250000
N        1.29490000      -2.92920000      -0.77200000
C        1.47300000      -2.84600000       0.59260000
O        2.40530000      -3.09250000       1.30980000
C        0.04010000      -2.28360000       0.78970000
C       -0.04840000      -0.82920000       1.28220000
H        0.93870000       1.83630000       0.59540000
H        0.05050000       1.93270000      -0.93740000
H       -0.81790000       1.89060000       0.60990000
H        0.01290000      -0.38980000      -2.10470000
H       -0.79370000      -2.81510000      -1.28810000
H        1.99840000      -2.98570000      -1.49610000
H       -0.63630000      -2.97680000       1.28960000
H        0.77160000      -0.57670000       1.96580000
H       -0.97790000      -0.64050000       1.83460000
