20
Properties=species:S:1:pos:R:3 gdb_80893=T pbc="F F F"
C        0.00140000       1.52810000      -0.03000000
N       -0.02350000       0.06780000       0.05410000
C       -1.18060000      -0.71410000       0.53080000
C       -0.18190000      -1.91340000       0.60420000
C        0.76490000      -0.73320000       1.02610000
C        2.26670000      -0.76980000       0.90390000
C        0.11810000      -0.41420000       2.41960000
O       -0.63500000       0.80570000       2.46650000
C       -1.29760000      -0.39850000       2.05620000
H        0.73810000       1.96370000       0.65110000
H        0.25690000       1.83070000      -1.05390000
H       -0.96600000       1.96690000       0.22910000
H       -2.08620000      -0.72460000      -0.07650000
H       -0.37960000      -2.69340000       1.34430000
H        0.06590000      -2.32890000      -0.37290000
H        2.56730000      -1.07350000      -0.10280000
H        2.70120000       0.21520000       1.10790000
H        2.69700000      -1.47560000       1.62260000
H        0.52670000      -0.77240000       3.35960000
H       -2.11430000      -0.74490000       2.68130000
