23
Properties=species:S:1:pos:R:3 gdb_118461=T pbc="F F F"
C        0.11110000       1.83650000       0.52310000
C        0.01940000       0.34710000       0.18790000
O        0.40380000       0.09200000      -1.16330000
C        0.77910000      -0.56910000       1.17960000
C        0.29630000      -2.00800000       0.97970000
O        0.88310000      -2.85240000       1.96330000
C        2.30950000      -0.43250000       1.04010000
C        3.10510000      -0.79570000       2.29050000
O        4.46790000      -0.47910000       2.02550000
H        1.14530000       2.19750000       0.50210000
H       -0.46060000       2.41410000      -0.20840000
H       -0.29300000       2.04100000       1.51990000
H       -1.04000000       0.06270000       0.21830000
H        1.30500000       0.41360000      -1.27580000
H        0.48630000      -0.26190000       2.19370000
H       -0.80250000      -2.03280000       1.05920000
H        0.55990000      -2.33250000      -0.03720000
H        0.65950000      -3.76230000       1.74800000
H        2.66630000      -1.05130000       0.20830000
H        2.57860000       0.60270000       0.79550000
H        2.72550000      -0.21320000       3.14710000
H        2.97250000      -1.85680000       2.52630000
H        4.99580000      -0.80430000       2.76000000
