20
Properties=species:S:1:pos:R:3 gdb_103198=T pbc="F F F"
C       -0.00460000       1.59280000      -0.09060000
C       -0.05470000       0.06100000      -0.02910000
C       -1.47100000      -0.51850000       0.08410000
O       -2.29350000      -0.11320000      -0.99090000
C       -1.45820000      -2.02520000       0.30630000
C       -1.45320000      -1.85720000       1.78030000
C       -2.06750000      -0.43060000       1.53610000
C       -3.40300000      -1.16960000       1.38310000
N       -2.64840000      -2.44590000       1.12090000
H        1.03120000       1.94270000      -0.12170000
H       -0.49290000       1.98440000      -0.99100000
H       -0.48270000       2.05190000       0.78130000
H        0.41480000      -0.35200000      -0.93030000
H        0.53730000      -0.28830000       0.82370000
H       -2.23670000       0.84410000      -1.07800000
H       -0.99710000      -2.78820000      -0.30800000
H       -0.88460000      -2.32480000       2.57210000
H       -1.94360000       0.46700000       2.14050000
H       -3.94610000      -1.28570000       2.32410000
H       -4.07430000      -0.85030000       0.58140000
