18
Properties=species:S:1:pos:R:3 gdb_9886=T pbc="F F F"
C       -1.38020000       1.44330000      -0.22750000
C       -0.46720000       0.23760000      -0.16830000
C       -1.00670000      -0.96340000       0.59260000
N       -1.04490000      -0.70910000       2.02270000
C       -2.18410000      -0.72060000       2.76200000
O       -3.29610000      -0.96030000       2.33880000
C        0.51060000       0.00740000      -1.26010000
N        0.97730000       0.44580000       0.07180000
H       -0.90440000       2.27130000      -0.76300000
H       -2.31730000       1.20270000      -0.74040000
H       -1.63570000       1.78860000       0.77970000
H       -2.02800000      -1.20210000       0.28730000
H       -0.37260000      -1.83410000       0.39190000
H       -0.17290000      -0.46760000       2.46770000
H       -1.98220000      -0.48360000       3.82590000
H        0.79940000      -1.00340000      -1.53600000
H        0.53540000       0.72140000      -2.07900000
H        1.19120000       1.44010000       0.04510000
