18
Properties=species:S:1:pos:R:3 gdb_101493=T pbc="F F F"
C       -0.16100000       1.57290000      -0.30900000
C        0.10510000       0.07490000      -0.08540000
C        0.86360000      -0.16510000       1.23300000
O        0.09480000       0.23060000       2.34660000
N       -1.15510000      -0.65450000       0.03690000
C       -1.75460000      -1.07440000      -1.00540000
N       -1.37030000      -0.97610000      -2.32600000
C       -2.99700000      -1.80650000      -0.81920000
N       -3.99100000      -2.38400000      -0.70180000
H        0.78410000       2.11020000      -0.43470000
H       -0.77720000       1.75120000      -1.19610000
H       -0.67950000       1.98320000       0.55990000
H        0.72400000      -0.32070000      -0.90810000
H        1.14300000      -1.22880000       1.29150000
H        1.78540000       0.42650000       1.24820000
H       -0.76110000      -0.20440000       2.23180000
H       -0.69200000      -0.27390000      -2.57030000
H       -2.05590000      -1.18310000      -3.03390000
