14
Properties=species:S:1:pos:R:3 gdb_55523=T pbc="F F F"
N       -0.25310000       1.35050000       0.08820000
C        0.11880000       0.02220000       0.08760000
O        1.25880000      -0.36120000       0.15070000
N       -1.00310000      -0.83220000       0.06100000
C       -1.00300000      -2.19920000      -0.02220000
O       -0.06320000      -2.94970000      -0.14280000
C       -2.46280000      -2.72080000       0.04900000
N       -2.51230000      -4.05970000      -0.03160000
O       -3.40950000      -1.95890000       0.16290000
H        0.51500000       1.98890000      -0.04690000
H       -1.12980000       1.62940000      -0.32280000
H       -1.94070000      -0.45750000       0.16510000
H       -1.64200000      -4.56160000      -0.12020000
H       -3.39400000      -4.54170000       0.00710000
