21
Properties=species:S:1:pos:R:3 gdb_114899=T pbc="F F F"
C        0.04970000       1.61240000       0.30820000
O        0.59300000       0.36140000      -0.04850000
C        0.77190000      -0.50140000       1.04740000
C       -0.50210000      -1.19030000       1.62650000
C        0.10930000      -2.58350000       1.28750000
O       -0.54800000      -3.32450000       0.27970000
C       -0.20660000      -2.74660000      -0.97930000
C        1.24980000      -2.27340000      -0.84040000
C        1.35030000      -1.88620000       0.64160000
H        0.69740000       2.14440000       1.02270000
H       -0.03100000       2.20540000      -0.60600000
H       -0.95010000       1.51620000       0.75710000
H        1.37160000       0.00020000       1.82190000
H       -0.69720000      -1.01130000       2.68660000
H       -1.41120000      -0.97900000       1.05740000
H        0.26740000      -3.24730000       2.13970000
H       -0.35350000      -3.51300000      -1.74470000
H       -0.86330000      -1.89490000      -1.20930000
H        1.93770000      -3.09800000      -1.04860000
H        1.48320000      -1.44360000      -1.50930000
H        2.32980000      -2.10550000       1.06820000
