18
Properties=species:S:1:pos:R:3 gdb_13330=T pbc="F F F"
O       -0.64310000       0.83220000       0.68640000
C        0.04560000       1.03200000      -0.28080000
C        1.34730000       1.79930000      -0.28240000
C        1.31460000       2.99080000      -1.25250000
C        0.29880000       4.10530000      -0.87170000
C        0.99250000       5.37010000      -1.31780000
C        2.27650000       5.16320000      -1.60370000
C        2.67800000       3.72200000      -1.39960000
H       -0.25650000       0.64860000      -1.28540000
H        1.56650000       2.12290000       0.74000000
H        2.13740000       1.10200000      -0.59850000
H        1.03610000       2.61710000      -2.24610000
H       -0.67790000       3.95740000      -1.34670000
H        0.10910000       4.12500000       0.21170000
H        0.48860000       6.32960000      -1.35440000
H        2.98270000       5.92750000      -1.90850000
H        3.29230000       3.61570000      -0.49290000
H        3.27630000       3.31590000      -2.22340000
