15
Properties=species:S:1:pos:R:3 gdb_21595=T pbc="F F F"
N        0.14810000       1.42010000      -0.06960000
C        0.05620000       0.02250000      -0.05270000
C       -1.05410000      -0.79810000      -0.02540000
N       -0.57580000      -2.07590000       0.05550000
N        0.75990000      -2.14190000       0.07150000
C        1.16010000      -0.87030000       0.01740000
C        2.60410000      -0.48640000       0.02050000
O        2.91890000       0.42260000      -1.04330000
H        1.00120000       1.71640000      -0.53020000
H       -0.65190000       1.87340000      -0.49030000
H       -2.11050000      -0.58460000      -0.05350000
H       -1.10840000      -2.92760000       0.08510000
H        2.86460000       0.06030000       0.93370000
H        3.22420000      -1.39120000      -0.01830000
H        2.69130000      -0.02170000      -1.86740000
