18
Properties=species:S:1:pos:R:3 gdb_76471=T pbc="F F F"
O        0.11410000       1.39190000       0.00260000
C        0.02360000      -0.00250000      -0.03500000
C       -0.46120000      -0.71700000       1.23520000
O       -0.86010000       0.12130000       2.29380000
C       -1.31270000      -0.65890000       0.01720000
C       -2.74420000      -0.19830000      -0.26040000
C       -2.45800000      -0.73770000      -1.68180000
N       -1.82930000      -1.83770000      -0.79460000
C       -3.10260000      -1.66700000       0.06550000
H       -0.32390000       1.66250000       0.82160000
H        0.82480000      -0.45220000      -0.61480000
H       -0.00920000      -1.66540000       1.52230000
H       -0.08820000       0.27920000       2.84970000
H       -3.24010000       0.72580000       0.04830000
H       -3.30540000      -1.09740000      -2.27200000
H       -1.72930000      -0.20540000      -2.29600000
H       -2.98150000      -2.00980000       1.09520000
H       -3.99510000      -2.09180000      -0.40230000
