20
Properties=species:S:1:pos:R:3 gdb_62178=T pbc="F F F"
C        0.13400000       1.59290000      -0.02290000
C        0.02370000       0.05430000      -0.03990000
C       -1.43940000      -0.44920000       0.02690000
C       -2.16310000      -0.09090000       1.32840000
C       -3.57580000      -0.70790000       1.37610000
C       -4.29280000      -0.37470000       2.60510000
N       -4.84310000      -0.09980000       3.58340000
C        0.68480000      -0.49430000      -1.22360000
C        1.20880000      -0.93700000      -2.21090000
H        1.17890000       1.90190000      -0.10330000
H       -0.41240000       2.02670000      -0.86610000
H       -0.27150000       2.00690000       0.90410000
H        0.54770000      -0.33230000       0.84640000
H       -1.99020000      -0.04570000      -0.83230000
H       -1.43260000      -1.53860000      -0.09560000
H       -1.58880000      -0.45020000       2.19030000
H       -2.25150000       0.99400000       1.44090000
H       -4.17010000      -0.36090000       0.52260000
H       -3.51710000      -1.79950000       1.29280000
H        1.68280000      -1.33170000      -3.07530000
