22
Properties=species:S:1:pos:R:3 gdb_106832=T pbc="F F F"
C       -0.06970000       1.23680000       0.66450000
C       -0.06810000      -0.18230000       0.07640000
C       -1.44220000      -0.66740000      -0.28410000
C       -2.31000000      -0.21530000      -1.47090000
C       -2.93650000      -1.65240000      -1.51420000
C       -2.05160000      -2.02870000      -0.31810000
C       -1.49560000      -3.39530000      -0.02290000
O       -0.65590000      -3.41820000       1.12810000
N       -2.42330000      -1.08500000       0.76790000
H        0.94650000       1.56250000       0.90620000
H       -0.49310000       1.95750000      -0.04290000
H       -0.66820000       1.28260000       1.57980000
H        0.56310000      -0.20270000      -0.82200000
H        0.38070000      -0.88820000       0.78420000
H       -2.99850000       0.60700000      -1.26230000
H       -1.72630000       0.01360000      -2.36630000
H       -4.01270000      -1.72480000      -1.33740000
H       -2.67870000      -2.19370000      -2.42850000
H       -2.32090000      -4.11740000       0.07630000
H       -0.87920000      -3.73220000      -0.86510000
H       -1.21120000      -3.57390000       1.89720000
H       -1.84770000      -1.35450000       1.56860000
