22
Properties=species:S:1:pos:R:3 gdb_22118=T pbc="F F F"
C       -1.41490000      -0.89880000      -0.03900000
C        0.09530000      -0.73840000       0.17190000
C        0.63740000      -1.81620000       1.11180000
O        0.01020000      -1.65510000       2.37730000
C        0.84590000      -0.75580000      -1.17890000
C        2.30070000      -0.37280000      -1.08930000
C        2.68480000       1.02890000      -0.69330000
N        3.14870000      -1.28840000      -1.37210000
O        4.47240000      -0.82600000      -1.24980000
H       -1.82220000      -0.07250000      -0.63070000
H       -1.63680000      -1.83180000      -0.57130000
H       -1.93320000      -0.92660000       0.92180000
H        0.27200000       0.22770000       0.66370000
H        0.42520000      -2.81100000       0.68480000
H        1.73000000      -1.72570000       1.19710000
H        0.33560000      -2.34430000       2.96300000
H        0.77460000      -1.75100000      -1.63030000
H        0.34230000      -0.05480000      -1.85830000
H        3.12880000       1.04200000       0.30830000
H        3.44550000       1.41810000      -1.37550000
H        1.81900000       1.69420000      -0.69510000
H        4.97910000      -1.59620000      -1.52720000
