20
Properties=species:S:1:pos:R:3 gdb_109752=T pbc="F F F"
C        0.89000000       1.26910000      -0.00730000
O        0.03270000       0.16050000       0.22850000
C        0.49790000      -0.66400000       1.25730000
C       -0.12550000      -2.00650000       1.42300000
C       -1.26520000      -2.50450000       0.56110000
C        1.33350000      -1.90460000       0.94450000
C        1.80820000      -2.32390000      -0.42040000
N        1.14740000      -1.80860000      -1.50180000
O        2.73810000      -3.10180000      -0.53750000
H        1.88680000       0.94590000      -0.33500000
H        0.42560000       1.87120000      -0.79110000
H        0.99650000       1.88160000       0.89860000
H        0.77590000      -0.10740000       2.15290000
H       -0.20370000      -2.32990000       2.45800000
H       -1.17630000      -2.19280000      -0.47890000
H       -1.30270000      -3.59820000       0.57800000
H       -2.21870000      -2.12850000       0.94690000
H        2.07920000      -2.17580000       1.68290000
H        0.52500000      -1.02370000      -1.38860000
H        1.53480000      -2.01820000      -2.40750000
