18
Properties=species:S:1:pos:R:3 gdb_55811=T pbc="F F F"
O       -0.01370000       0.08360000      -0.94880000
C        0.04380000       1.17220000      -0.16670000
O        1.07330000       1.53320000       0.33670000
C       -1.27060000       1.95580000       0.01220000
C       -2.51030000       1.07790000       0.00060000
C       -3.92310000       1.50060000      -0.48870000
C       -3.32410000       1.46260000      -1.91050000
N       -2.71520000       0.20290000      -1.26680000
H       -0.93420000      -0.09620000      -1.25430000
C       -4.12970000      -0.01890000      -0.70630000
H       -1.19370000       2.48420000       0.96510000
H       -1.28960000       2.72420000      -0.76750000
H       -2.51310000       0.44660000       0.89600000
H       -4.61050000       2.22920000      -0.05050000
H       -3.99600000       1.23160000      -2.74010000
H       -2.59500000       2.21590000      -2.20720000
H       -4.15350000      -0.67100000       0.17010000
H       -4.84750000      -0.33610000      -1.46590000
