16
Properties=species:S:1:pos:R:3 gdb_13492=T pbc="F F F"
C       -0.06500000       1.59090000       0.04870000
C        0.02240000       0.06520000       0.01510000
O        0.81420000      -0.44800000       1.08040000
C       -1.36890000      -0.58300000       0.01780000
C       -1.46490000      -2.11170000       0.17570000
O       -2.18630000      -1.94250000       1.44430000
C       -2.07840000      -0.58280000       1.37830000
O       -2.41110000       0.21850000       2.19520000
H        0.93940000       2.01990000       0.09020000
H       -0.57090000       1.97720000      -0.84180000
H       -0.63060000       1.92320000       0.92590000
H        0.54480000      -0.25230000      -0.89560000
H        0.51650000      -0.03130000       1.89820000
H       -1.99400000      -0.17450000      -0.78080000
H       -2.07960000      -2.64860000      -0.54820000
H       -0.51400000      -2.61610000       0.35040000
