14
Properties=species:S:1:pos:R:3 gdb_42499=T pbc="F F F"
O       -0.04630000      -0.12320000      -0.00000000
C       -0.01430000       1.08150000       0.00460000
C        1.27720000       1.89320000      -0.00280000
O        2.37700000       1.02720000      -0.01560000
C        3.60250000       1.71900000      -0.02270000
C        4.70280000       0.75130000      -0.03620000
N        5.59880000       0.02390000      -0.04680000
C       -1.21170000       1.90560000       0.01790000
C       -2.19400000       2.60080000       0.02930000
H        1.26150000       2.55780000      -0.88470000
H        1.27620000       2.55020000       0.88490000
H        3.69590000       2.36920000      -0.90780000
H        3.71070000       2.36140000       0.86640000
H       -3.07270000       3.19980000       0.04030000
