20
Properties=species:S:1:pos:R:3 gdb_95436=T pbc="F F F"
C       -0.55250000       1.06950000      -0.25410000
C       -0.20680000      -0.40380000      -0.00130000
C        0.53530000      -1.02430000      -1.22590000
N        1.53810000      -1.91560000      -0.62630000
C        1.71550000      -1.55190000       0.67890000
C        0.76480000      -0.70460000       1.14390000
C        0.70000000      -0.34120000       2.55970000
C       -0.49810000       0.46060000       3.05260000
O        1.57720000      -0.66930000       3.34740000
H        0.35810000       1.67080000      -0.34790000
H       -1.12490000       1.17500000      -1.18280000
H       -1.15690000       1.49260000       0.55110000
H       -1.14710000      -0.95210000       0.15860000
H       -0.13100000      -1.57420000      -1.89600000
H        1.02430000      -0.23050000      -1.80990000
H        2.32830000      -2.21500000      -1.17630000
H        2.52090000      -1.97610000       1.26420000
H       -1.44090000       0.09060000       2.63570000
H       -0.52810000       0.41090000       4.14200000
H       -0.39930000       1.51100000       2.75590000
