23
Properties=species:S:1:pos:R:3 gdb_58565=T pbc="F F F"
C        0.11060000       1.46580000      -0.21700000
C        0.00910000      -0.02560000       0.11220000
O        0.63690000      -0.32020000       1.36050000
C       -1.43010000      -0.56770000       0.06140000
C       -2.29290000      -0.05150000       1.21630000
C       -2.16420000      -0.44890000      -1.31330000
C       -2.65150000      -1.91290000      -1.15460000
C       -1.56550000      -2.12460000      -0.06220000
O       -0.37200000      -2.68460000      -0.57610000
H        1.16010000       1.77290000      -0.21340000
H       -0.31020000       1.69050000      -1.20170000
H       -0.42160000       2.08080000       0.51920000
H        0.59110000      -0.58840000      -0.62220000
H        0.31710000       0.31680000       2.00760000
H       -2.39990000       1.03820000       1.18590000
H       -3.30170000      -0.47470000       1.17850000
H       -1.85890000      -0.33270000       2.18150000
H       -2.92610000       0.33010000      -1.39970000
H       -1.46050000      -0.34390000      -2.14340000
H       -3.66890000      -1.98410000      -0.76100000
H       -2.56880000      -2.56380000      -2.02900000
H       -1.87830000      -2.64470000       0.85360000
H       -0.55520000      -3.59720000      -0.81990000
