16
Properties=species:S:1:pos:R:3 gdb_46754=T pbc="F F F"
O       -0.07120000       0.05810000      -0.35150000
C       -0.02260000       1.20260000      -0.01000000
O       -1.13490000       1.88250000       0.40860000
C       -0.83430000       3.20900000       0.88910000
C        0.63280000       3.48400000       0.54530000
C        1.16660000       2.14790000       0.01260000
C        1.45370000       2.89140000      -1.30630000
C        0.25110000       3.54500000      -1.84990000
N        0.96480000       4.21720000      -0.74220000
H       -1.52190000       3.91290000       0.41180000
H       -1.00940000       3.22420000       1.96950000
H        1.17880000       3.95180000       1.36350000
H        2.03630000       1.70310000       0.49180000
H        2.38490000       2.81150000      -1.85560000
H        0.36710000       4.08290000      -2.78540000
H       -0.73750000       3.12050000      -1.69980000
