17
Properties=species:S:1:pos:R:3 gdb_37219=T pbc="F F F"
C       -0.15760000       1.15980000       0.05030000
C        1.29810000       0.92040000       0.05410000
C        1.80220000       0.17500000       1.29220000
O        1.82370000       0.71980000       2.58990000
C        1.74530000      -0.40040000       3.48280000
C        0.46310000      -1.25840000       3.29900000
N       -0.07920000      -1.35010000       1.93030000
C        0.61140000      -0.71420000       1.09800000
N        0.30050000      -0.22860000      -0.23780000
H       -0.68800000       1.34010000       0.98050000
H       -0.57310000       1.65560000      -0.82100000
H        1.94830000       1.29190000      -0.72880000
H        2.75790000      -0.31780000       1.05170000
H        2.64050000      -1.02750000       3.34590000
H        1.77460000       0.01090000       4.49440000
H        0.65710000      -2.26700000       3.68140000
H       -0.35120000      -0.85050000       3.90980000
