23
Properties=species:S:1:pos:R:3 gdb_110974=T pbc="F F F"
C        0.46360000       0.99810000       0.63560000
C        0.15060000      -0.49530000       0.78800000
C       -1.31200000      -0.81840000       0.52670000
C       -1.81900000      -0.93240000      -0.93670000
O       -1.03960000      -2.18120000      -1.08820000
C       -1.72570000      -2.29690000       0.23200000
C       -1.49280000      -3.53560000       1.04080000
C       -3.02480000      -1.79750000      -0.47890000
C       -4.23850000      -1.25320000       0.25790000
H        1.51610000       1.20560000       0.85190000
H        0.26040000       1.34400000      -0.38360000
H       -0.14190000       1.60640000       1.31740000
H        0.76910000      -1.08250000       0.10350000
H        0.40760000      -0.81550000       1.80670000
H       -1.96740000      -0.27270000       1.21240000
H       -1.75930000      -0.20940000      -1.75180000
H       -0.43940000      -3.62440000       1.32370000
H       -2.09390000      -3.50860000       1.95550000
H       -1.77340000      -4.42510000       0.46830000
H       -3.31640000      -2.49380000      -1.27050000
H       -3.98610000      -0.55550000       1.06000000
H       -4.90380000      -0.73110000      -0.43840000
H       -4.81350000      -2.07390000       0.70080000
