20
Properties=species:S:1:pos:R:3 gdb_6218=T pbc="F F F"
C        0.54300000       1.30630000       0.25860000
C       -0.06330000      -0.07470000      -0.00990000
O       -1.48560000       0.02050000      -0.08510000
C        0.54120000      -0.75120000      -1.26660000
C        1.79830000      -1.50930000      -0.78280000
C        1.67120000      -1.62580000       0.76710000
O        2.62370000      -0.80800000       1.45070000
C        0.27460000      -1.08880000       1.09770000
H        1.62240000       1.24010000       0.41240000
H        0.35250000       1.98300000      -0.58440000
H        0.09650000       1.74230000       1.15750000
H       -1.70140000       0.74400000      -0.68260000
H       -0.20840000      -1.45260000      -1.64640000
H        0.75670000      -0.03690000      -2.06780000
H        1.88270000      -2.49140000      -1.25700000
H        2.71610000      -0.96090000      -1.01860000
H        1.78440000      -2.66640000       1.10040000
H        3.50300000      -1.10600000       1.19710000
H        0.23750000      -0.66530000       2.10400000
H       -0.46060000      -1.89810000       1.04060000
