19
Properties=species:S:1:pos:R:3 gdb_37027=T pbc="F F F"
C        0.01240000       1.46960000       0.18170000
C        1.35960000       0.82210000      -0.05920000
C        1.72860000       0.00210000       1.17990000
O        0.44570000      -0.68820000       1.17770000
C        0.10210000      -0.01710000      -0.04470000
C       -0.32790000      -0.72670000      -1.25140000
C        0.20010000      -0.36640000      -2.42800000
C        1.21570000       0.74500000      -2.57840000
C        2.14040000       0.93670000      -1.34030000
H       -0.24720000       1.82430000       1.17520000
H       -0.39160000       2.05540000      -0.63640000
H        2.54710000      -0.70480000       0.99760000
H        1.90610000       0.53870000       2.11970000
H       -1.05010000      -1.53320000      -1.16640000
H       -0.12500000      -0.86250000      -3.33830000
H        1.83390000       0.56670000      -3.46490000
H        0.69140000       1.69000000      -2.77950000
H        2.67780000       1.88730000      -1.43390000
H        2.89830000       0.14350000      -1.34750000
