18
Properties=species:S:1:pos:R:3 gdb_88190=T pbc="F F F"
O       -0.01640000       1.38590000      -0.05670000
C       -0.00270000      -0.01190000      -0.01650000
C       -0.45210000      -0.72840000       1.23120000
C       -1.34230000      -0.69340000      -0.00700000
C       -2.60800000       0.14160000      -0.01690000
C       -3.79160000      -0.79650000       0.18960000
O       -3.77790000      -1.86350000      -0.77350000
C       -2.55400000      -2.35340000      -1.08130000
N       -1.40980000      -1.91630000      -0.75650000
H        0.70360000       1.70590000       0.49670000
H        0.76470000      -0.49410000      -0.61970000
H        0.01980000      -1.67030000       1.48400000
H       -0.76190000      -0.11440000       2.07100000
H       -2.59490000       0.91560000       0.75330000
H       -2.70980000       0.64750000      -0.98400000
H       -3.76400000      -1.23980000       1.19340000
H       -4.75190000      -0.29290000       0.05870000
H       -2.65330000      -3.24490000      -1.69700000
