16
Properties=species:S:1:pos:R:3 gdb_8848=T pbc="F F F"
C        0.01330000       1.47620000       0.10510000
N       -0.04540000       0.02640000       0.09200000
C       -1.23030000      -0.63690000      -0.02820000
O       -2.30770000      -0.08060000      -0.13160000
N       -1.11510000      -2.04800000      -0.02400000
C        0.15530000      -2.75110000       0.09800000
C       -2.27720000      -2.80350000      -0.14240000
O       -2.29140000      -4.01260000      -0.14980000
H        0.61440000       1.85560000      -0.72840000
H       -1.00690000       1.84620000       0.00620000
H        0.43950000       1.84680000       1.04370000
H        0.81300000      -0.48810000       0.17380000
H        0.65060000      -2.51980000       1.04740000
H       -0.07230000      -3.81680000       0.07020000
H        0.82660000      -2.51090000      -0.73370000
H       -3.16510000      -2.16550000      -0.22680000
