19
Properties=species:S:1:pos:R:3 gdb_36034=T pbc="F F F"
C       -0.04700000      -1.27480000       0.07250000
C       -0.03630000      -0.07460000       0.00130000
C       -0.00580000       1.37760000      -0.11230000
C        1.39540000       1.99300000      -0.01820000
C        2.45270000       1.29920000       0.76530000
N        2.50930000       1.32220000      -0.70840000
C        1.47340000       3.49560000      -0.09960000
C        0.35830000       4.36380000      -0.55580000
N        0.77110000       4.36530000       0.86040000
H       -0.07340000      -2.33430000       0.14250000
H       -0.44740000       1.66160000      -1.07640000
H       -0.65540000       1.81340000       0.65930000
H        3.21830000       1.88790000       1.26270000
H        2.19490000       0.36520000       1.25510000
H        2.19390000       0.42120000      -1.06400000
H        2.48730000       3.82590000      -0.31170000
H        0.57760000       5.28000000      -1.09660000
H       -0.59190000       3.90950000      -0.82100000
H        0.11340000       3.81970000       1.41330000
