18
Properties=species:S:1:pos:R:3 gdb_61408=T pbc="F F F"
C       -0.05780000       1.21100000      -0.55160000
C        0.03020000      -0.22170000      -0.08790000
O        1.08820000      -0.78190000       0.11180000
C       -1.26520000      -1.00770000       0.15130000
O       -0.93280000      -2.33770000       0.47440000
C       -2.11210000      -0.34380000       1.26060000
C       -3.48300000      -0.99560000       1.48990000
N       -3.44220000      -2.33180000       1.74380000
O       -4.50740000      -0.34020000       1.48290000
H        0.89510000       1.51390000      -0.98750000
H       -0.86950000       1.35200000      -1.27100000
H       -0.26850000       1.85990000       0.30640000
H       -1.84140000      -0.99340000      -0.78760000
H        0.03830000      -2.34080000       0.54910000
H       -1.53890000      -0.37520000       2.19520000
H       -2.31740000       0.69950000       1.01500000
H       -2.59630000      -2.84810000       1.55070000
H       -4.32200000      -2.81780000       1.80930000
