18
Properties=species:S:1:pos:R:3 gdb_76430=T pbc="F F F"
C       -0.05990000       1.44230000      -0.22380000
C        0.04830000      -0.04780000       0.00600000
C        1.39640000      -0.75690000       0.00290000
O        2.58160000      -0.01280000      -0.04770000
C        0.64410000      -0.59110000       1.29670000
O        1.17550000       0.31340000       2.21170000
C       -0.00350000      -1.78060000       1.98520000
C        0.96740000      -2.60880000       2.70360000
N        1.73850000      -3.26860000       3.25550000
H        0.71140000       1.98450000       0.32600000
H        0.02850000       1.68990000      -1.28780000
H       -1.02940000       1.81390000       0.12150000
H       -0.75990000      -0.63610000      -0.42260000
H        1.46610000      -1.74560000      -0.44840000
H        2.60380000       0.49350000      -0.86620000
H        2.07320000       0.51460000       1.91150000
H       -0.75400000      -1.41830000       2.69720000
H       -0.52640000      -2.40660000       1.25470000
