20
Properties=species:S:1:pos:R:3 gdb_102484=T pbc="F F F"
C        0.10920000       1.25900000       0.12800000
O       -0.08640000      -0.15590000       0.09110000
C       -1.36160000      -0.58210000      -0.03280000
N       -2.32060000       0.24590000      -0.11270000
C       -1.39700000      -2.10110000      -0.03630000
C       -1.09620000      -2.60700000       1.38320000
O       -1.02160000      -4.03330000       1.34650000
C       -2.71770000      -2.66970000      -0.58670000
O       -2.63010000      -4.03950000      -0.90600000
H        1.18500000       1.40520000       0.23350000
H       -0.25380000       1.72370000      -0.79260000
H       -0.42570000       1.70410000       0.97150000
H       -3.21590000      -0.22910000      -0.19420000
H       -0.58700000      -2.44870000      -0.68800000
H       -0.15030000      -2.17750000       1.73520000
H       -1.89780000      -2.27740000       2.06170000
H       -0.96460000      -4.36240000       2.24810000
H       -3.52850000      -2.47460000       0.13920000
H       -2.98140000      -2.14720000      -1.51260000
H       -2.22560000      -4.47080000      -0.14110000
