18
Properties=species:S:1:pos:R:3 gdb_12524=T pbc="F F F"
O        0.61600000       0.44740000      -1.05670000
C       -0.00880000      -0.30210000       0.00000000
C        0.77680000      -0.07200000       1.26730000
C        0.39780000       0.28130000       2.49570000
C       -0.98620000       0.48100000       3.05580000
C       -2.08580000      -0.39350000       2.43540000
C       -2.37450000      -0.09820000       0.98520000
C       -1.49600000      -0.04810000      -0.01370000
H        0.56100000       1.37660000      -0.80520000
H        0.15210000      -1.34550000      -0.31510000
H        1.84450000      -0.17630000       1.08210000
H        1.19850000       0.44470000       3.21580000
H       -0.94910000       0.28240000       4.13410000
H       -1.27070000       1.53900000       2.96290000
H       -1.80210000      -1.44840000       2.55300000
H       -3.00460000      -0.26120000       3.01610000
H       -3.41920000       0.07480000       0.73510000
H       -1.85920000       0.15430000      -1.01920000
