21
Properties=species:S:1:pos:R:3 gdb_121974=T pbc="F F F"
C       -0.08630000       0.75980000       0.90410000
O        0.16900000      -0.42650000       0.18510000
C        0.02410000      -0.26530000      -1.21360000
C        0.29670000      -1.58350000      -1.92930000
N       -0.79240000      -2.55460000      -1.83500000
C       -0.72430000      -3.56220000      -2.88700000
C       -0.87740000      -3.16810000      -0.51120000
C       -2.15630000      -3.86050000      -0.31380000
N       -3.15610000      -4.41500000      -0.14740000
H        0.60540000       1.56440000       0.61010000
H       -1.11600000       1.11630000       0.74970000
H        0.05820000       0.53760000       1.96370000
H       -0.99120000       0.08220000      -1.46110000
H        0.73930000       0.49240000      -1.57540000
H        0.42530000      -1.35090000      -2.99120000
H        1.26130000      -1.99130000      -1.57240000
H        0.19260000      -4.17920000      -2.83780000
H       -1.58680000      -4.23000000      -2.81170000
H       -0.75810000      -3.07490000      -3.86520000
H       -0.06390000      -3.89700000      -0.32610000
H       -0.78260000      -2.38740000       0.24660000
