16
Properties=species:S:1:pos:R:3 gdb_51071=T pbc="F F F"
O        0.40000000       1.87060000       1.52450000
C        0.14530000       1.79480000       0.34500000
N        1.02590000       1.38340000      -0.62210000
C        2.31810000       0.93440000      -0.31490000
C        3.48240000       1.60790000       0.39950000
C        3.65360000       0.42170000       1.34600000
C        2.98270000      -0.41210000       0.22780000
O        3.94540000      -0.37950000      -0.86550000
C        3.63540000       1.00120000      -1.01110000
H       -0.83920000       2.06300000      -0.08660000
H        0.66510000       1.23860000      -1.55410000
H        3.61070000       2.66490000       0.59090000
H        4.66140000       0.11320000       1.63770000
H        2.99810000       0.52700000       2.21250000
H        2.53510000      -1.39080000       0.38410000
H        3.97530000       1.53580000      -1.88830000
