18
Properties=species:S:1:pos:R:3 gdb_88781=T pbc="F F F"
O        0.10290000       1.41100000       0.24260000
C       -0.00960000       0.02780000       0.13210000
C       -0.57950000      -0.83370000       1.23220000
C       -1.32710000      -0.67590000      -0.08380000
C       -2.64230000       0.06450000      -0.15480000
C       -3.88720000      -0.75030000       0.30010000
N       -4.50130000       0.03840000       1.38300000
C       -3.75540000       1.04380000       1.54710000
O       -2.65280000       1.20420000       0.76520000
H       -0.71430000       1.74770000       0.63010000
H        0.84610000      -0.36190000      -0.41020000
H       -0.11800000      -1.78740000       1.46410000
H       -0.98530000      -0.31020000       2.09170000
H       -1.31370000      -1.52750000      -0.76060000
H       -2.77990000       0.48520000      -1.15670000
H       -4.60970000      -0.89580000      -0.50830000
H       -3.60870000      -1.73870000       0.68110000
H       -3.90280000       1.83340000       2.27550000
