12
Properties=species:S:1:pos:R:3 gdb_132416=T pbc="F F F"
F        0.02380000       0.04730000       0.00350000
C       -0.01400000       1.37000000       0.01070000
N       -1.18620000       1.94110000       0.02980000
C       -1.17830000       3.28630000       0.03670000
C       -2.48430000       4.01130000       0.05830000
O       -3.56240000       3.47910000       0.07080000
C        0.01440000       4.00420000       0.02400000
N        1.21050000       3.39990000       0.00450000
C        1.20110000       2.07530000      -0.00230000
H       -2.37610000       5.11840000       0.06290000
H        0.01180000       5.09050000       0.02960000
H        2.14920000       1.54620000      -0.01800000
