22
Properties=species:S:1:pos:R:3 gdb_110939=T pbc="F F F"
C        0.55900000       1.70850000       0.36340000
C        0.48010000       0.25630000      -0.10580000
N        0.96270000      -0.62820000       0.94800000
C        0.11950000      -1.24130000       1.94340000
C       -1.20910000      -1.78310000       1.37320000
C       -0.38830000      -2.71350000       0.42320000
C       -0.67670000      -2.78750000      -1.06530000
O       -1.90390000      -3.49140000      -1.22040000
C        0.91440000      -2.07020000       0.95210000
H        1.58240000       1.96470000       0.65080000
H        0.23380000       2.39020000      -0.42870000
H       -0.08550000       1.87000000       1.23370000
H       -0.54780000       0.03770000      -0.42810000
H        1.12730000       0.10780000      -0.97830000
H        0.32120000      -1.04450000       2.99110000
H       -1.79200000      -2.34230000       2.10680000
H       -1.86860000      -1.04960000       0.90010000
H       -0.44450000      -3.73760000       0.80790000
H       -0.74090000      -1.78600000      -1.51200000
H        0.15260000      -3.31540000      -1.56600000
H       -2.12450000      -3.50940000      -2.15620000
H        1.84980000      -2.60430000       1.09060000
