21
Properties=species:S:1:pos:R:3 gdb_91944=T pbc="F F F"
C        0.60320000       1.41090000      -0.43040000
C        0.05970000       0.09120000       0.11650000
O        0.04580000      -0.90040000      -0.92320000
C        0.94150000      -1.93390000      -0.61870000
C        2.39670000      -1.57840000      -0.45370000
C        1.49800000      -1.75740000       0.75650000
C        0.79440000      -0.54750000       1.35030000
C        1.70850000       0.39950000       2.12920000
O       -0.17510000      -1.11680000       2.24040000
H        1.65780000       1.34770000      -0.71110000
H        0.03580000       1.68490000      -1.32410000
H        0.49030000       2.21600000       0.30270000
H       -0.98570000       0.24840000       0.41220000
H        0.63580000      -2.88570000      -1.03710000
H        3.12860000      -2.36110000      -0.62430000
H        2.72850000      -0.58860000      -0.74600000
H        1.66790000      -2.58480000       1.43440000
H        2.52060000       0.78780000       1.51000000
H        1.15040000       1.25670000       2.52520000
H        2.14570000      -0.13810000       2.97490000
H       -0.62230000      -0.39190000       2.68990000
