20
Properties=species:S:1:pos:R:3 gdb_50351=T pbc="F F F"
O       -0.02710000      -0.01770000       0.18580000
C        0.02840000       1.19470000       0.11070000
N        1.17320000       1.90640000       0.01680000
C        2.51190000       1.29810000       0.04620000
C        3.40520000       2.55410000      -0.03180000
C        3.26520000       3.16810000      -1.44850000
C        1.81330000       3.75330000      -1.44290000
C        1.31490000       3.36650000      -0.03160000
C        2.58690000       3.55310000       0.81920000
H       -0.86980000       1.84570000       0.11520000
H        2.65400000       0.72830000       0.97170000
H        2.65580000       0.61160000      -0.79420000
H        4.43330000       2.37160000       0.28150000
H        4.00840000       3.95540000      -1.60310000
H        3.41320000       2.42130000      -2.23320000
H        1.81390000       4.84020000      -1.56960000
H        1.17750000       3.32530000      -2.22090000
H        0.40340000       3.86520000       0.29920000
H        2.45280000       3.24290000       1.85860000
H        2.97960000       4.57260000       0.78630000
