18
Properties=species:S:1:pos:R:3 gdb_59689=T pbc="F F F"
C       -0.00350000       1.55910000      -0.04940000
C        0.02280000       0.03450000       0.05660000
O        0.73690000      -0.40830000       1.20460000
C       -1.38050000      -0.56140000       0.05200000
C       -2.23620000      -0.49450000      -1.23110000
O       -2.47410000      -1.92140000      -1.19660000
C       -1.54980000      -2.10290000      -0.10620000
C       -0.36090000      -2.86040000      -0.51740000
N        0.56080000      -3.46620000      -0.86190000
H        1.01600000       1.95210000      -0.02880000
H       -0.48200000       1.88940000      -0.97720000
H       -0.55920000       1.99970000       0.78840000
H        0.58440000      -0.37700000      -0.79030000
H        0.36920000       0.03910000       1.97530000
H       -1.92860000      -0.21000000       0.93200000
H       -3.16950000       0.07370000      -1.17640000
H       -1.68380000      -0.20000000      -2.13290000
H       -2.01720000      -2.61830000       0.73970000
