11
Properties=species:S:1:pos:R:3 gdb_1364=T pbc="F F F"
O       -0.12630000      -0.12640000       0.00080000
C       -0.07050000       1.07850000       0.00540000
C        1.24000000       1.87810000      -0.00150000
C        2.43940000       1.06060000      -0.01540000
C        3.43640000       0.39240000      -0.02690000
C       -1.26280000       1.91030000       0.01820000
C       -2.23800000       2.61560000       0.02870000
H        1.20760000       2.55090000      -0.86980000
H        1.22190000       2.54220000       0.87380000
H        4.31450000      -0.20460000      -0.03710000
H       -3.11250000       3.22020000       0.03810000
