8
Properties=species:S:1:pos:R:3 gdb_3820=T pbc="F F F"
N        0.06890000      -1.12220000      -0.00460000
C       -0.00390000       0.03100000       0.00290000
C       -0.08470000       1.45070000       0.01200000
N       -1.15420000       2.18940000       0.02990000
C       -0.60980000       3.44800000       0.03010000
N        0.69690000       3.48710000       0.01340000
O        1.06270000       2.14680000       0.00110000
H       -1.20070000       4.35170000       0.04280000
