16
Properties=species:S:1:pos:R:3 gdb_33906=T pbc="F F F"
N        0.07150000      -1.16270000      -0.07660000
C        0.03890000      -0.00550000      -0.04100000
C       -0.01110000       1.41610000       0.03060000
C        0.29510000       2.29190000      -1.16780000
C        1.16910000       2.43410000       0.03070000
C        0.44630000       3.22520000       1.14510000
O       -0.45620000       4.26680000       0.70750000
C       -1.60650000       3.38370000       0.83080000
C       -0.69530000       2.19540000       1.18810000
H        0.73570000       1.75970000      -2.00320000
H       -0.38110000       3.09320000      -1.44140000
H        2.22820000       2.21070000       0.00730000
H        1.05010000       3.51110000       2.00790000
H       -2.26060000       3.70350000       1.64990000
H       -2.18840000       3.32000000      -0.09510000
H       -0.91700000       1.59710000       2.06830000
