14
Properties=species:S:1:pos:R:3 gdb_34292=T pbc="F F F"
N        0.04220000      -1.11400000       0.07040000
C        0.03620000       0.03890000       0.04350000
C       -0.00680000       1.49490000      -0.04510000
O       -0.69140000       2.04900000       1.10620000
C       -0.17640000       3.38620000       1.18650000
C        0.76130000       3.44140000      -0.06300000
O        1.26760000       2.09160000       0.00240000
C       -0.15460000       3.37990000      -1.27680000
C       -0.64450000       2.14060000      -1.27980000
H       -0.99360000       4.11160000       1.14960000
H        0.39390000       3.50030000       2.11280000
H        1.56970000       4.16750000      -0.04100000
H       -0.43360000       4.22060000      -1.89600000
H       -1.41050000       1.68740000      -1.89080000
