18
Properties=species:S:1:pos:R:3 gdb_76513=T pbc="F F F"
O        0.05070000       1.37140000      -0.06850000
C        0.03500000      -0.02460000      -0.06060000
C       -0.44770000      -0.71570000       1.19780000
O       -0.91570000       0.12670000       2.22290000
C       -1.29410000      -0.74020000      -0.03820000
C       -2.69930000      -0.14470000      -0.15330000
N       -3.20980000      -1.38840000      -0.84600000
C       -2.40510000      -1.52680000      -2.07330000
C       -1.79410000      -1.94530000      -0.79500000
H       -0.36560000       1.64660000       0.76040000
H        0.86390000      -0.44750000      -0.62160000
H        0.02300000      -1.64010000       1.53050000
H       -0.17980000       0.30390000       2.81980000
H       -3.20070000      -0.01550000       0.80750000
H       -2.80040000       0.76830000      -0.74930000
H       -2.77710000      -2.30450000      -2.73350000
H       -2.04290000      -0.63140000      -2.57490000
H       -1.59760000      -2.98240000      -0.53970000
