17
Properties=species:S:1:pos:R:3 gdb_72576=T pbc="F F F"
O        0.09900000       1.36640000      -0.03070000
C        0.00990000      -0.01490000      -0.04680000
C        0.61830000      -0.70080000      -1.30330000
O        0.10070000      -2.03640000      -1.27170000
C       -0.72600000      -2.11840000      -0.09740000
C        0.19750000      -2.14100000       1.14140000
C        0.67390000      -0.68740000       1.15280000
O        1.37920000      -0.10710000       1.94010000
C       -1.37050000      -0.72370000      -0.01970000
H        0.66880000       1.58530000       0.72360000
H        0.28190000      -0.17480000      -2.20510000
H        1.71440000      -0.71430000      -1.29240000
H       -1.38720000      -2.97710000      -0.20230000
H       -0.34260000      -2.36510000       2.06810000
H        1.02610000      -2.84730000       1.04810000
H       -1.93240000      -0.54110000       0.90000000
H       -1.98680000      -0.48710000      -0.88910000
