17
Properties=species:S:1:pos:R:3 gdb_91474=T pbc="F F F"
N        0.13810000       1.39500000      -0.03850000
C        0.04800000      -0.04780000       0.00970000
C        0.43010000      -0.61850000       1.41440000
C       -0.90930000      -1.29500000       1.74830000
C       -1.24880000      -2.09360000       0.47090000
C       -1.41180000      -0.63550000      -0.01540000
O       -1.88170000      -0.27390000       1.32040000
C       -2.26690000      -0.23910000      -1.11340000
N       -2.90090000       0.08010000      -2.02560000
H       -0.14120000       1.74280000      -0.95170000
H       -0.50570000       1.79130000       0.64220000
H        0.65070000      -0.47010000      -0.79900000
H        1.26890000      -1.31760000       1.38470000
H        0.66890000       0.18980000       2.10790000
H       -1.08890000      -1.67290000       2.75270000
H       -0.47900000      -2.71370000       0.00660000
H       -2.20530000      -2.61100000       0.53860000
