17
Properties=species:S:1:pos:R:3 gdb_35167=T pbc="F F F"
C       -0.04520000      -1.21440000      -0.01480000
C       -0.04340000      -0.01130000       0.01340000
C       -0.02810000       1.42200000       0.03760000
C        0.50580000       2.17120000       1.27790000
C        1.27790000       2.17050000       0.02090000
C        2.71910000       1.78090000      -0.32440000
C        2.44870000       2.17160000      -1.79900000
C        1.86930000       3.27020000      -0.87150000
O        3.11070000       3.19220000      -0.06130000
H       -0.05230000      -2.27570000      -0.03570000
H       -0.86230000       1.90050000      -0.46960000
H       -0.02640000       3.07020000       1.57080000
H        0.85860000       1.56110000       2.10200000
H        3.34560000       0.99240000       0.09000000
H        3.33420000       2.47190000      -2.35980000
H        1.75210000       1.55690000      -2.37320000
H        1.48060000       4.26000000      -1.11110000
