19
Properties=species:S:1:pos:R:3 gdb_124611=T pbc="F F F"
C        0.04940000       1.50880000       0.05560000
C       -0.03990000      -0.01760000      -0.02750000
C       -1.48180000      -0.53070000      -0.03050000
N        0.67300000      -0.50110000      -1.21960000
N        0.28610000      -0.22550000      -2.45420000
N        1.15550000      -0.80010000      -3.25000000
C        2.05910000      -1.41570000      -2.44760000
C        3.22680000      -2.19470000      -2.94710000
N        1.77640000      -1.24080000      -1.15810000
H        1.09140000       1.83920000       0.06470000
H       -0.45430000       1.96990000      -0.79800000
H       -0.43170000       1.85670000       0.97400000
H        0.51260000      -0.46610000       0.80110000
H       -2.03050000      -0.13160000      -0.88720000
H       -1.50850000      -1.62250000      -0.07900000
H       -1.98630000      -0.21280000       0.88620000
H        3.88390000      -1.56280000      -3.55200000
H        3.79690000      -2.59570000      -2.10770000
H        2.89690000      -3.02370000      -3.58010000
