20
Properties=species:S:1:pos:R:3 gdb_36597=T pbc="F F F"
C        0.01870000      -1.23940000      -0.00400000
C       -0.01350000      -0.03790000      -0.00920000
C       -0.01660000       1.41930000      -0.01480000
C        1.40410000       2.02450000       0.01000000
C        1.39250000       3.53550000       0.00380000
C        0.77610000       4.52870000       1.02500000
N        1.40040000       5.48620000      -0.00360000
C        2.59160000       4.51310000       0.02450000
C        0.81840000       4.52060000      -1.04940000
H        0.03330000      -2.30090000       0.00020000
H       -0.55050000       1.78040000      -0.90330000
H       -0.58380000       1.78710000       0.85000000
H        1.93280000       1.66410000       0.90020000
H        1.96630000       1.65730000      -0.85670000
H       -0.31340000       4.60730000       1.08430000
H        1.23280000       4.59660000       2.01700000
H        3.18720000       4.57890000       0.93980000
H        3.22400000       4.57190000      -0.86630000
H        1.31520000       4.58090000      -2.02230000
H       -0.26770000       4.59860000      -1.15360000
