19
Properties=species:S:1:pos:R:3 gdb_2104=T pbc="F F F"
C       -0.02730000       1.55190000       0.03010000
C        0.01790000       0.02290000      -0.00680000
C        0.69800000      -0.51430000      -1.27730000
C        0.83000000      -2.04260000      -1.22040000
C        1.49180000      -2.46380000       0.09310000
O        0.79310000      -1.95890000       1.21840000
C        0.73860000      -0.54340000       1.22440000
H        0.98310000       1.97790000       0.02440000
H       -0.55850000       1.95070000      -0.84020000
H       -0.53710000       1.91690000       0.92840000
H       -1.01090000      -0.36290000       0.01890000
H        0.14130000      -0.20390000      -2.16900000
H        1.69860000      -0.06510000      -1.36180000
H       -0.16330000      -2.50450000      -1.27930000
H        1.41510000      -2.41890000      -2.06770000
H        1.50280000      -3.55220000       0.20460000
H        2.53920000      -2.11200000       0.11180000
H        1.76120000      -0.12490000       1.27410000
H        0.21920000      -0.26230000       2.14620000
