20
Properties=species:S:1:pos:R:3 gdb_60194=T pbc="F F F"
C        0.41850000       1.37990000      -0.02890000
C        0.11250000      -0.10400000       0.17260000
O        0.31090000      -0.49450000       1.53040000
C       -1.29500000      -0.46610000      -0.31430000
N       -1.46730000      -1.91260000      -0.35040000
C       -1.91760000      -2.56760000       0.86050000
C       -2.83690000      -2.46590000      -0.32180000
C       -3.99640000      -1.61820000      -0.26390000
C       -4.97830000      -0.92250000      -0.25590000
H        1.41080000       1.61430000       0.36530000
H        0.39120000       1.65370000      -1.08830000
H       -0.31470000       2.00620000       0.49560000
H        0.83050000      -0.70860000      -0.39220000
H       -0.21710000       0.09440000       2.08150000
H       -2.04080000       0.03820000       0.32500000
H       -1.43720000      -0.08660000      -1.33290000
H       -1.44640000      -3.51750000       1.09690000
H       -2.16040000      -1.94800000       1.72020000
H       -2.95360000      -3.34020000      -0.95820000
H       -5.84710000      -0.31220000      -0.23870000
