13
Properties=species:S:1:pos:R:3 gdb_1716=T pbc="F F F"
O        0.10430000       1.48630000      -0.07550000
C       -0.00430000       0.11100000       0.02160000
C        0.13580000      -0.54380000       1.42820000
O       -1.05720000      -1.32120000       1.21720000
C       -1.42930000      -0.51550000       0.08390000
C        0.86530000      -0.57300000      -1.00570000
O        1.54270000       0.05620000      -1.78210000
H        0.72870000       1.65500000      -0.80040000
H        1.01090000      -1.17070000       1.63240000
H        0.02090000       0.20770000       2.21970000
H       -2.17870000       0.24740000       0.33030000
H       -1.77600000      -1.12030000      -0.76140000
H        0.84270000      -1.68090000      -1.00240000
