21
Properties=species:S:1:pos:R:3 gdb_121178=T pbc="F F F"
C       -0.01650000       1.58700000       0.21600000
C       -0.01990000       0.07190000      -0.00430000
C       -1.42550000      -0.53600000       0.07450000
C       -1.42980000      -2.04840000      -0.12300000
C       -0.98130000      -2.88360000       1.10980000
N       -2.40600000      -3.11190000       1.44560000
C       -2.81480000      -2.75870000       0.07200000
C       -4.03910000      -1.96260000      -0.03650000
N       -5.00240000      -1.33310000      -0.14560000
H        0.99600000       1.99690000       0.14940000
H       -0.63350000       2.09650000      -0.53200000
H       -0.41670000       1.84340000       1.20290000
H        0.41890000      -0.15860000      -0.98430000
H        0.63110000      -0.40640000       0.73920000
H       -1.88190000      -0.29680000       1.04340000
H       -2.06550000      -0.07210000      -0.68690000
H       -0.93950000      -2.31230000      -1.06280000
H       -0.42720000      -3.78900000       0.82720000
H       -0.42150000      -2.35570000       1.88860000
H       -2.65990000      -4.04540000       1.74860000
H       -2.91200000      -3.61630000      -0.60970000
