17
Properties=species:S:1:pos:R:3 gdb_32967=T pbc="F F F"
O       -0.11300000       1.45460000       0.12340000
C        0.01290000       0.04270000       0.11630000
C       -1.37980000      -0.54260000      -0.14070000
C       -1.40960000      -2.03280000      -0.13980000
C       -1.53160000      -2.96110000      -1.13400000
N       -1.48340000      -4.25530000      -0.63420000
C       -1.33310000      -4.09680000       0.65100000
O       -1.23690000      -5.06300000       1.58160000
N       -1.27590000      -2.79420000       1.02660000
H        0.76300000       1.83650000       0.22920000
H        0.70130000      -0.30370000      -0.66910000
H        0.40390000      -0.32920000       1.07810000
H       -2.06700000      -0.12970000       0.60970000
H       -1.73120000      -0.18400000      -1.11280000
H       -1.65670000      -2.77680000      -2.19030000
H       -1.30680000      -5.89970000       1.10480000
H       -1.18850000      -2.45600000       1.96980000
