13
Properties=species:S:1:pos:R:3 gdb_33350=T pbc="F F F"
N       -0.16940000      -3.80670000      -0.18720000
C       -0.09640000      -2.64920000      -0.12450000
C       -0.01410000      -1.28820000      -0.05100000
C        0.06250000      -0.08470000       0.01340000
C        0.11040000       1.36430000       0.10280000
C       -0.48750000       1.95290000       1.43100000
N        0.62980000       2.67230000       2.05070000
C        1.62010000       2.52850000       1.27950000
O        1.49060000       1.81770000       0.12630000
H       -0.36020000       1.79890000      -0.78500000
H       -1.31610000       2.63670000       1.22790000
H       -0.85180000       1.16790000       2.09850000
H        2.61390000       2.93060000       1.43900000
