14
Properties=species:S:1:pos:R:3 gdb_33276=T pbc="F F F"
C        0.07650000      -3.73780000      -0.02090000
C        0.04360000      -2.53060000      -0.00920000
C        0.00770000      -1.17180000       0.00420000
C       -0.01700000       0.03890000       0.02620000
C       -0.03960000       1.47700000       0.03240000
C        0.53290000       2.17050000       1.24650000
N        1.27260000       2.19770000      -0.00640000
C       -1.11550000       2.09450000      -0.70490000
C       -2.02800000       2.59960000      -1.30010000
H        0.10410000      -4.79920000      -0.03110000
H        0.08990000       3.11740000       1.53870000
H        0.87130000       1.53470000       2.05920000
H        2.01690000       1.50330000       0.00770000
H       -2.82940000       3.04640000      -1.83510000
