18
Properties=species:S:1:pos:R:3 gdb_54032=T pbc="F F F"
C        0.03040000       1.50650000       0.06390000
C        0.03590000      -0.01270000       0.09640000
O        1.05830000      -0.63720000       0.25320000
N       -1.19310000      -0.68960000      -0.06970000
C       -2.42370000      -0.03790000      -0.02490000
O       -3.49210000      -0.59540000       0.00340000
C       -1.17150000      -2.13920000      -0.07400000
C       -1.92230000      -2.87890000      -1.14520000
C       -0.41810000      -2.85780000      -1.15740000
H        1.07130000       1.82590000       0.10660000
H       -0.43360000       1.89990000      -0.84480000
H       -0.50180000       1.92650000       0.92290000
H       -2.32920000       1.05840000      -0.01970000
H       -1.15200000      -2.57220000       0.92070000
H       -2.44110000      -3.78290000      -0.84880000
H       -2.44650000      -2.28940000      -1.88650000
H        0.07490000      -2.25180000      -1.90770000
H        0.13250000      -3.74590000      -0.87060000
