18
Properties=species:S:1:pos:R:3 gdb_117054=T pbc="F F F"
C       -0.30840000       1.35250000       0.30400000
C        0.35990000       0.06400000      -0.18060000
N        1.09510000      -0.61530000       0.87130000
C        0.73310000      -1.81920000       1.37110000
O       -0.20730000      -2.49820000       1.01320000
C        1.70200000      -2.24570000       2.49700000
O        2.63320000      -1.56670000       2.86510000
O        1.37690000      -3.43280000       2.99360000
C        2.22400000      -3.91160000       4.04900000
H        0.43020000       2.06270000       0.69100000
H       -0.83900000       1.83730000      -0.52130000
H       -1.02770000       1.14100000       1.10010000
H       -0.38620000      -0.64870000      -0.53940000
H        1.04100000       0.28140000      -1.01270000
H        1.90040000      -0.18220000       1.30050000
H        3.25360000      -4.01090000       3.69650000
H        2.20510000      -3.22170000       4.89620000
H        1.81900000      -4.88190000       4.33330000
