16
Properties=species:S:1:pos:R:3 gdb_48291=T pbc="F F F"
O       -0.08420000       0.03570000      -0.06790000
C       -0.00420000       1.23310000      -0.02230000
C        1.34770000       1.98880000      -0.02650000
N        2.52330000       1.13780000       0.03020000
C        2.72040000       0.49870000       1.34020000
C        3.88590000      -0.37700000       1.32110000
C        4.83130000      -1.11740000       1.30000000
C        1.34030000       2.84180000      -1.21650000
C        1.26640000       3.50300000      -2.21700000
H       -0.90190000       1.88840000       0.00180000
H        1.34670000       2.63650000       0.86470000
H        2.44950000       0.41880000      -0.68310000
H        2.87730000       1.29600000       2.07990000
H        1.84620000      -0.08110000       1.67620000
H        5.67160000      -1.76640000       1.28470000
H        1.23190000       4.10210000      -3.09370000
