16
Properties=species:S:1:pos:R:3 gdb_69197=T pbc="F F F"
C        0.09390000       1.56260000       0.09640000
C        0.09330000       0.06670000       0.02240000
C       -0.89850000      -0.87580000       0.62490000
C        0.57710000      -0.97220000       1.02880000
C        1.35940000      -1.61190000      -0.09970000
O        2.13350000      -2.50690000      -0.22330000
N        0.84210000      -0.65240000      -1.03300000
C        0.66960000      -0.64190000      -2.40240000
O        1.19370000      -1.39950000      -3.17700000
H        1.10990000       1.95720000       0.00090000
H       -0.52120000       2.00300000      -0.69550000
H       -0.31880000       1.89140000       1.05420000
H       -1.54160000      -0.46810000       1.39960000
H       -1.34880000      -1.65930000       0.02360000
H        0.91340000      -0.84540000       2.04760000
H       -0.00640000       0.18210000      -2.71170000
