14
Properties=species:S:1:pos:R:3 gdb_20526=T pbc="F F F"
C       -0.08720000       1.49560000       0.00980000
C        0.05090000      -0.00420000       0.00290000
O        1.09440000      -0.60820000      -0.00830000
N       -1.16960000      -0.72430000       0.01090000
C       -1.29500000      -2.09000000       0.00700000
C       -2.63560000      -2.35930000       0.01770000
C       -3.25970000      -1.08140000       0.02790000
N       -2.37970000      -0.09760000       0.02380000
H        0.91240000       1.92880000       0.00250000
H       -0.65740000       1.83130000      -0.85990000
H       -0.64170000       1.82460000       0.89210000
H       -0.41780000      -2.71430000      -0.00290000
H       -3.10750000      -3.32830000       0.01820000
H       -4.31610000      -0.85340000       0.03800000
