16
Properties=species:S:1:pos:R:3 gdb_123338=T pbc="F F F"
C        0.01200000      -1.24890000       0.07300000
C       -0.02370000      -0.04770000       0.08220000
C       -0.02350000       1.40880000       0.08790000
C        1.40010000       1.99880000      -0.10380000
C        1.41410000       3.49200000      -0.10220000
C        1.44720000       4.43420000      -1.10610000
N        1.40880000       5.68100000      -0.55810000
N        1.35230000       5.57420000       0.73680000
N        1.35190000       4.25550000       1.01990000
H        0.02570000      -2.31070000       0.06560000
H       -0.67650000       1.78880000      -0.70660000
H       -0.44810000       1.77600000       1.03050000
H        2.05570000       1.60630000       0.68130000
H        1.80520000       1.64160000      -1.05410000
H        1.50190000       4.28510000      -2.17260000
H        1.32860000       3.96200000       1.98400000
