18
Properties=species:S:1:pos:R:3 gdb_13936=T pbc="F F F"
C       -0.27510000       1.48430000      -0.05130000
C        0.05620000       0.00100000      -0.10870000
C        1.38200000      -0.41010000      -0.78410000
O        1.84250000      -1.05400000       0.42410000
C        0.66390000      -0.67710000       1.14430000
C        0.83590000       0.01460000       2.51130000
O       -0.01700000      -0.95700000       3.15090000
C       -0.07210000      -1.76010000       1.95400000
H        0.57550000       2.07070000       0.31260000
H       -0.53600000       1.86010000      -1.04640000
H       -1.12630000       1.67860000       0.60960000
H       -0.80100000      -0.56210000      -0.48980000
H        1.30980000      -1.11380000      -1.62110000
H        2.03380000       0.42450000      -1.07320000
H        1.87110000      -0.03040000       2.87440000
H        0.45220000       1.03560000       2.61970000
H       -1.10230000      -1.99150000       1.65570000
H        0.50460000      -2.69010000       2.04380000
