20
Properties=species:S:1:pos:R:3 gdb_88549=T pbc="F F F"
C       -0.23330000       1.47500000      -0.15580000
C       -0.08470000      -0.00760000       0.08510000
N        1.22190000      -0.61970000      -0.20380000
C        0.72380000      -0.61450000       1.18360000
C        1.51280000       0.14690000       2.18080000
C        2.49160000       1.32090000       1.99460000
C        3.26930000       0.81730000       3.26030000
C        2.24640000      -0.31940000       3.37600000
O        0.94930000       0.27910000       3.49760000
H        0.69100000       2.00880000       0.07060000
H       -0.48330000       1.66770000      -1.20480000
H       -1.03550000       1.88920000       0.46400000
H       -0.96300000      -0.59070000      -0.19230000
H        1.11430000      -1.54130000      -0.61730000
H        0.33630000      -1.54710000       1.59170000
H        3.07390000       1.23690000       1.07590000
H        2.03980000       2.31310000       2.06170000
H        4.27620000       0.46750000       3.02100000
H        3.30970000       1.49190000       4.11870000
H        2.36830000      -1.31490000       3.78960000
