18
Properties=species:S:1:pos:R:3 gdb_40393=T pbc="F F F"
C        0.47020000       1.45130000       0.04270000
O        1.04020000       0.22070000      -0.41050000
C       -0.29870000       0.19680000       0.08790000
C       -0.52520000      -0.55600000       1.34670000
C        0.56350000      -0.92840000       2.31360000
C       -0.26110000      -2.01180000       1.67160000
N       -1.67440000      -2.24380000       2.17890000
C       -1.97320000      -1.33580000       3.30410000
C       -1.93740000      -0.78330000       1.93460000
H        0.89200000       1.84580000       0.96550000
H        0.26850000       2.18520000      -0.73620000
H       -1.05460000       0.04210000      -0.68490000
H        1.55050000      -0.85390000       1.86720000
H        0.53930000      -0.68050000       3.36880000
H        0.17330000      -2.79830000       1.06820000
H       -2.95670000      -1.53000000       3.72320000
H       -1.22010000      -1.09560000       4.04510000
H       -2.83320000      -0.46860000       1.40710000
