13
Properties=species:S:1:pos:R:3 gdb_5276=T pbc="F F F"
C       -0.02640000       1.51220000      -0.07350000
C       -0.02460000       0.00280000       0.05290000
O       -0.03980000      -0.57390000       1.12160000
C       -0.00300000      -0.77910000      -1.19200000
C        0.00440000      -2.11900000      -1.44590000
N        0.02640000      -2.33270000      -2.81030000
C        0.03130000      -1.13720000      -3.31430000
O        0.01440000      -0.13980000      -2.41140000
H        0.86050000       1.85220000      -0.61860000
H       -0.89720000       1.84790000      -0.64660000
H       -0.04330000       1.95200000       0.92370000
H       -0.00470000      -2.92740000      -0.73330000
H        0.04690000      -0.85290000      -4.35520000
