19
Properties=species:S:1:pos:R:3 gdb_51653=T pbc="F F F"
O       -0.36640000       0.82440000       0.37740000
C        0.21160000       1.76220000      -0.13620000
N        1.53990000       1.82580000      -0.39890000
C        2.46660000       0.74820000      -0.09000000
C        3.20960000       0.24930000      -1.36240000
C        4.47460000       1.08470000      -1.41340000
N        4.22030000       2.52860000      -1.18140000
C        4.71190000       1.67300000      -0.07250000
C        3.60270000       1.22440000       0.86000000
H       -0.31020000       2.68870000      -0.45050000
H        1.94100000       2.64670000      -0.83000000
H        1.86150000      -0.03740000       0.36170000
H        3.48160000      -0.80710000      -1.25380000
H        2.58210000       0.34540000      -2.25250000
H        5.29190000       0.80240000      -2.06880000
H        4.99320000       3.07180000      -1.55640000
H        5.71260000       1.84580000       0.30940000
H        3.25240000       2.00810000       1.53690000
H        3.96340000       0.38800000       1.46990000
