17
Properties=species:S:1:pos:R:3 gdb_74210=T pbc="F F F"
N        0.09390000       1.36170000       0.14440000
C       -0.00520000      -0.02070000       0.02730000
C       -1.18330000      -0.65260000       0.27670000
C       -1.60210000      -2.02810000      -0.03670000
O       -2.78310000      -2.30990000      -0.19300000
N       -0.63000000      -3.00060000      -0.15770000
C        0.69320000      -2.90190000       0.43690000
C        1.56750000      -1.92350000      -0.30500000
C        1.22260000      -0.64510000      -0.47740000
H        0.99910000       1.71920000       0.41140000
H       -0.66420000       1.81560000       0.63230000
H       -2.02400000      -0.04660000       0.60310000
H       -1.01730000      -3.92120000      -0.30150000
H        0.62360000      -2.59720000       1.49390000
H        1.14130000      -3.89760000       0.41760000
H        2.50620000      -2.28160000      -0.71700000
H        1.89220000       0.02250000      -1.01460000
