21
Properties=species:S:1:pos:R:3 gdb_101588=T pbc="F F F"
C       -0.07950000       1.48520000      -0.49730000
C       -0.05670000       0.04400000       0.01680000
C       -1.45490000      -0.57790000       0.10660000
O       -2.12360000      -0.57130000      -1.15130000
C       -1.41550000      -2.00050000       0.69720000
C       -2.81540000      -2.57090000       0.76950000
O       -3.66200000      -2.22030000       1.55200000
O       -3.01350000      -3.50920000      -0.17920000
C       -4.33890000      -4.05300000      -0.22880000
H        0.93390000       1.88250000      -0.60650000
H       -0.57960000       1.53810000      -1.46770000
H       -0.62360000       2.13920000       0.19270000
H        0.56220000      -0.58130000      -0.64350000
H        0.41400000       0.00180000       1.00710000
H       -2.08840000       0.03950000       0.75400000
H       -1.65420000      -1.17430000      -1.73950000
H       -0.77450000      -2.64500000       0.08710000
H       -1.00900000      -1.96370000       1.71220000
H       -4.59770000      -4.52650000       0.72150000
H       -5.06780000      -3.26630000      -0.43880000
H       -4.32850000      -4.78950000      -1.03250000
