17
Properties=species:S:1:pos:R:3 gdb_128763=T pbc="F F F"
C       -0.19960000       1.41720000       0.33830000
O       -0.34170000       0.03630000       0.59510000
C       -1.01480000      -0.63730000      -0.43710000
C       -1.16070000      -2.08200000      -0.08550000
C       -1.00180000      -2.82550000       1.04710000
C       -0.59020000      -2.47710000       2.43760000
N       -1.31950000      -4.12270000       0.68610000
N       -1.64400000      -4.20230000      -0.52180000
O       -1.55460000      -2.88380000      -1.07860000
H        0.33280000       1.84940000       1.18760000
H        0.38020000       1.59930000      -0.57920000
H       -1.17680000       1.91300000       0.23610000
H       -2.01470000      -0.20020000      -0.60860000
H       -0.46930000      -0.55400000      -1.39220000
H       -1.36610000      -2.76690000       3.15340000
H        0.32500000      -3.00950000       2.71670000
H       -0.41120000      -1.40620000       2.52070000
