17
Properties=species:S:1:pos:R:3 gdb_47137=T pbc="F F F"
N       -0.05150000       1.25990000       0.29410000
C       -0.03710000      -0.00280000       0.16370000
O        1.09450000      -0.75980000       0.05600000
C        0.73570000      -2.13590000      -0.11870000
C       -0.76030000      -2.14040000      -0.09600000
C       -1.21630000      -0.89390000       0.08450000
C       -2.61690000      -0.44390000       0.17330000
C       -3.04160000       0.58260000       1.17430000
N       -3.02430000       0.91140000      -0.25040000
H        0.89510000       1.63970000       0.30950000
H        1.15690000      -2.49340000      -1.06780000
H        1.18490000      -2.72600000       0.69110000
H       -1.35140000      -3.03940000      -0.20970000
H       -3.33790000      -1.21480000      -0.08860000
H       -4.02670000       0.48990000       1.62370000
H       -2.27280000       1.01690000       1.80530000
H       -2.17950000       1.45580000      -0.42740000
