20
Properties=species:S:1:pos:R:3 gdb_92259=T pbc="F F F"
O        0.02250000       1.43390000       0.40840000
C        0.00730000       0.06900000       0.05840000
C        0.29450000      -0.99830000       1.15640000
N       -0.98890000      -1.71050000       0.84150000
C       -2.09110000      -1.38200000       1.80960000
C       -2.59160000      -0.21780000       0.92140000
C       -3.54750000      -0.63210000      -0.23970000
C       -2.32990000      -0.76480000      -1.21110000
C       -1.39200000      -0.52550000      -0.02550000
H        0.93480000       1.74020000       0.40180000
H        0.58440000      -0.11570000      -0.85930000
H        1.17790000      -1.62780000       1.01300000
H        0.32300000      -0.55870000       2.16070000
H       -2.79420000      -2.21140000       1.94680000
H       -1.71770000      -1.08050000       2.79510000
H       -2.76750000       0.75320000       1.38300000
H       -4.09320000      -1.56140000      -0.05550000
H       -4.26710000       0.13770000      -0.52600000
H       -2.19950000      -1.71900000      -1.72790000
H       -2.28920000       0.04680000      -1.94430000
