19
Properties=species:S:1:pos:R:3 gdb_89769=T pbc="F F F"
C       -0.39980000       1.42630000      -0.07070000
C        0.10480000       0.00090000      -0.02140000
O        1.31760000      -0.18580000      -0.79530000
C        2.05600000      -0.56150000       0.36230000
C        3.15840000      -1.56300000       0.32410000
C        3.44670000      -0.09260000       0.61290000
C        0.82520000      -0.49380000       1.28040000
C        0.88040000       0.38060000       2.43230000
C        0.94290000       1.10300000       3.39200000
H        0.35710000       2.12300000       0.29810000
H       -0.64940000       1.69220000      -1.10240000
H       -1.30000000       1.53560000       0.54290000
H       -0.66990000      -0.69750000      -0.35980000
H        3.24130000      -2.27990000       1.13500000
H        3.44090000      -1.94400000      -0.65160000
H        3.91910000       0.48620000      -0.17350000
H        3.71280000       0.19950000       1.62340000
H        0.47870000      -1.48750000       1.57990000
H        0.99180000       1.74130000       4.23930000
