17
Properties=species:S:1:pos:R:3 gdb_105570=T pbc="F F F"
C        0.06990000       1.55780000       0.03120000
O        0.09580000       0.13590000       0.12020000
C        0.58780000      -0.52420000      -1.01610000
C        0.39130000      -2.07390000      -0.92660000
C       -0.28740000      -2.10470000      -2.32710000
C       -0.39390000      -0.57820000      -2.25220000
O       -1.07110000       0.24780000      -2.78560000
C        1.93530000      -0.12820000      -1.41350000
C        3.03750000       0.19170000      -1.77450000
H        1.07970000       1.96660000      -0.09730000
H       -0.56350000       1.89330000      -0.79680000
H       -0.34530000       1.91160000       0.97690000
H        1.30380000      -2.65560000      -0.80770000
H       -0.30520000      -2.29680000      -0.11690000
H        0.38870000      -2.41600000      -3.12950000
H       -1.23030000      -2.64470000      -2.43380000
H        4.01150000       0.47750000      -2.08820000
