21
Properties=species:S:1:pos:R:3 gdb_83546=T pbc="F F F"
O        0.16510000       1.45890000      -0.14340000
C        0.04230000       0.06850000      -0.02150000
C        0.18710000      -0.65150000       1.35890000
C       -0.90630000       0.03830000       2.20190000
C       -2.07200000       0.04920000       1.15050000
C       -1.35310000      -0.63710000      -0.03020000
C       -0.61460000      -1.77960000       0.68760000
C       -0.09530000      -3.04880000       0.09870000
C       -1.11490000      -3.07710000       1.22880000
H       -0.41110000       1.88280000       0.50020000
H        0.71110000      -0.36310000      -0.76760000
H        1.15880000      -0.82320000       1.82300000
H       -1.15870000      -0.53720000       3.09580000
H       -0.61340000       1.04110000       2.53210000
H       -2.94110000      -0.52050000       1.48820000
H       -2.42030000       1.05790000       0.90250000
H       -1.91640000      -0.79450000      -0.95050000
H       -0.43090000      -3.33880000      -0.89230000
H        0.92190000      -3.35150000       0.32770000
H       -0.77520000      -3.39710000       2.20920000
H       -2.12820000      -3.38440000       0.98900000
