23
Properties=species:S:1:pos:R:3 gdb_122986=T pbc="F F F"
C       -0.14140000       1.52830000       0.39250000
C       -0.06890000       0.06780000      -0.00810000
C       -1.37100000      -0.51800000      -0.49760000
O       -1.77340000       0.15980000      -1.67550000
C       -3.00890000      -0.28560000      -2.20240000
C       -3.19580000       0.42800000      -3.53240000
O       -2.13140000       0.14480000      -4.41820000
C        1.20100000      -0.45040000      -0.63990000
C        0.83910000      -0.85530000       0.76880000
H        0.83700000       1.90010000       0.71160000
H       -0.48400000       2.14230000      -0.44560000
H       -0.84160000       1.67460000       1.22400000
H       -1.25710000      -1.59530000      -0.70260000
H       -2.15230000      -0.41290000       0.27490000
H       -2.98390000      -1.37590000      -2.36180000
H       -3.83860000      -0.05860000      -1.51260000
H       -4.12000000       0.08730000      -4.01070000
H       -3.28960000       1.51040000      -3.34780000
H       -1.32720000       0.27940000      -3.90240000
H        1.11750000      -1.19610000      -1.42330000
H        2.02050000       0.24670000      -0.77720000
H        1.40770000      -0.42770000       1.58780000
H        0.51790000      -1.87750000       0.94130000
