18
Properties=species:S:1:pos:R:3 gdb_90017=T pbc="F F F"
C        0.03560000       1.58250000       0.13160000
N        0.02930000       0.13710000       0.14090000
C       -1.24810000      -0.56030000       0.37450000
C       -0.48240000      -1.60080000       1.22280000
C        0.66160000      -0.56290000       1.27350000
O       -1.05600000      -2.10050000       2.43970000
C       -0.88780000      -3.49020000       2.07840000
C       -0.26200000      -3.03910000       0.75070000
O        0.19210000      -3.56860000      -0.21560000
H        1.06270000       1.94740000       0.02790000
H       -0.53820000       1.94950000      -0.72570000
H       -0.39610000       2.02470000       1.05000000
H       -1.95290000      -0.00940000       1.01920000
H       -1.76520000      -0.90490000      -0.52700000
H        1.68520000      -0.90950000       1.09730000
H        0.61490000      -0.01280000       2.22810000
H       -0.21770000      -4.03100000       2.75750000
H       -1.83940000      -4.02870000       1.99400000
