12
Properties=species:S:1:pos:R:3 gdb_131107=T pbc="F F F"
O        0.00370000       1.49050000      -0.02010000
C        0.04860000       0.08210000       0.00650000
C        0.64790000      -0.50210000      -1.20020000
C        1.16220000      -0.95690000      -2.18540000
C        0.76960000      -0.43310000       1.23210000
N        1.65990000       0.23730000       1.89980000
O        2.04440000      -0.60190000       2.88930000
N        1.33300000      -1.79260000       2.76920000
N        0.57140000      -1.68860000       1.77510000
H        0.90790000       1.81990000      -0.08970000
H       -0.99390000      -0.24840000       0.08300000
H        1.60630000      -1.36350000      -3.06110000
