19
Properties=species:S:1:pos:R:3 gdb_37710=T pbc="F F F"
C       -0.07660000       1.60530000       0.03360000
C        1.44100000       1.26500000      -0.00780000
C        1.26030000       0.04810000       0.94990000
C        1.88950000      -0.99520000      -0.00190000
C        1.20750000      -2.37710000       0.02950000
C       -0.30830000      -2.29530000       0.07300000
C       -0.92900000      -1.11140000       0.08110000
C       -0.02690000       0.06650000       0.04500000
C        1.20550000       0.03230000      -0.93290000
H       -0.44640000       2.09710000       0.94010000
H       -0.49870000       2.08210000      -0.85800000
H        2.28890000       1.95080000      -0.03820000
H        1.24710000       0.06920000       2.04190000
H        2.98210000      -1.07100000      -0.03310000
H        1.51600000      -2.96450000      -0.84780000
H        1.56680000      -2.94980000       0.89710000
H       -0.86290000      -3.22920000       0.09690000
H       -2.00940000      -1.01170000       0.11180000
H        1.12870000       0.03520000      -2.02240000
