16
Properties=species:S:1:pos:R:3 gdb_75392=T pbc="F F F"
C        0.11120000       1.43450000       0.06910000
C       -0.23310000      -0.01680000      -0.06950000
N       -1.32540000      -0.49950000       0.32670000
C       -1.62000000      -1.91230000       0.09370000
C       -0.62480000      -2.83920000       0.73980000
C        0.69700000      -2.76780000       0.56290000
C        1.39350000      -1.86310000      -0.36940000
O        2.47140000      -2.10850000      -0.83530000
O        0.78420000      -0.68180000      -0.75350000
H        1.01230000       1.55320000       0.67970000
H        0.33420000       1.85800000      -0.91530000
H       -0.71980000       1.97050000       0.52550000
H       -2.61960000      -2.11170000       0.48570000
H       -1.65730000      -2.11070000      -0.98850000
H       -1.01880000      -3.61650000       1.38970000
H        1.36310000      -3.48450000       1.03030000
