18
Properties=species:S:1:pos:R:3 gdb_53343=T pbc="F F F"
C       -0.08900000       1.44620000       0.14760000
C       -0.03240000      -0.00720000       0.11090000
C        0.00590000      -1.21050000       0.09230000
C        0.04480000      -2.65890000       0.04770000
N        0.30940000      -3.36550000       1.35040000
C       -0.83490000      -4.28390000       1.13140000
C       -2.11630000      -3.75200000       1.79620000
O       -2.40030000      -2.91490000       0.64180000
C       -1.29430000      -3.45260000      -0.08810000
H        0.53690000       1.89300000      -0.63290000
H       -1.11320000       1.80650000       0.00070000
H        0.26050000       1.82930000       1.11280000
H        0.72980000      -2.99080000      -0.74640000
H        1.21010000      -3.82940000       1.36670000
H       -0.62990000      -5.35480000       1.14150000
H       -2.91170000      -4.49330000       1.94620000
H       -1.95840000      -3.16860000       2.70830000
H       -1.57130000      -3.80820000      -1.08290000
