15
Properties=species:S:1:pos:R:3 gdb_10417=T pbc="F F F"
C        0.00730000       1.43460000      -0.01190000
O       -0.00530000       0.01980000       0.13380000
C       -1.26550000      -0.57640000       0.02500000
C       -1.85990000      -0.70950000      -1.41250000
O       -1.73600000      -2.13990000      -1.37300000
C       -1.15050000      -2.11800000      -0.06040000
C       -2.20650000      -0.06980000       1.03650000
N       -2.94280000       0.34000000       1.82760000
H        1.05060000       1.74130000       0.07330000
H       -0.37770000       1.74320000      -0.99350000
H       -0.58190000       1.92460000       0.77310000
H       -2.89690000      -0.38360000      -1.54160000
H       -1.22060000      -0.25250000      -2.17700000
H       -0.10500000      -2.44370000      -0.05280000
H       -1.73500000      -2.68640000       0.66910000
