13
Properties=species:S:1:pos:R:3 gdb_124347=T pbc="F F F"
C       -0.02820000       1.52970000      -0.08640000
C       -0.02130000       0.02960000       0.07890000
O       -0.03340000      -0.55770000       1.12510000
N        0.00190000      -0.69220000      -1.14810000
N        0.01620000      -0.04410000      -2.37790000
C        0.03500000      -1.00300000      -3.22490000
O        0.03500000      -2.24580000      -2.69990000
C        0.01310000      -2.08300000      -1.30390000
O        0.00710000      -2.98000000      -0.52760000
H        0.85520000       1.86270000      -0.63760000
H       -0.90030000       1.85170000      -0.66160000
H       -0.04470000       1.97360000       0.90810000
H        0.05040000      -0.90040000      -4.29850000
