19
Properties=species:S:1:pos:R:3 gdb_106861=T pbc="F F F"
O        0.19780000       1.32640000       0.20630000
C        0.06260000      -0.04180000      -0.16150000
C       -1.36220000      -0.50800000      -0.13110000
C       -2.02410000      -0.99440000       1.12780000
C       -1.90740000      -1.95980000      -0.03470000
C       -2.98810000      -1.62380000      -1.08070000
C       -2.43730000      -0.16510000      -1.17080000
C       -1.19800000      -3.18940000       0.05860000
C       -0.60460000      -4.23600000       0.11370000
H       -0.17020000       1.42300000       1.09110000
H        0.46400000      -0.10850000      -1.17860000
H        0.67700000      -0.69750000       0.47570000
H       -1.35950000      -1.20950000       1.95870000
H       -3.00670000      -0.62740000       1.41720000
H       -2.85380000      -2.18020000      -2.00950000
H       -4.02060000      -1.74770000      -0.74010000
H       -3.12440000       0.64050000      -0.89560000
H       -2.01450000       0.05960000      -2.15250000
H       -0.08220000      -5.15860000       0.16880000
