15
Properties=species:S:1:pos:R:3 gdb_79314=T pbc="F F F"
O        0.00660000       1.45890000      -0.01030000
C       -0.00030000       0.06650000      -0.00480000
C       -1.33090000      -0.69810000      -0.06630000
C       -1.62690000      -0.79630000      -1.55590000
O       -0.61890000      -0.06390000      -2.25960000
C        0.34430000      -0.65380000      -1.33520000
C       -0.67730000      -1.79120000      -0.94560000
C       -0.62020000      -3.19560000      -0.84930000
C       -0.55690000      -4.39520000      -0.76740000
H       -0.37990000       1.71910000      -0.85800000
H        0.62170000      -0.28390000       0.82160000
H       -2.08090000      -0.83660000       0.70070000
H       -2.60210000      -0.92040000      -2.00570000
H        1.34620000      -0.74540000      -1.74600000
H       -0.50390000      -5.45320000      -0.69720000
