23
Properties=species:S:1:pos:R:3 gdb_41968=T pbc="F F F"
C       -0.08730000       1.44580000      -0.23180000
C        1.31610000       1.99100000       0.14410000
C        1.98280000       0.92530000       1.06030000
C        1.80880000       1.22440000       2.56110000
C        0.33130000       1.28620000       2.96560000
C       -0.41540000      -0.02130000       2.63480000
C       -0.00850000      -0.69510000       1.33160000
C        0.01230000      -0.06910000      -0.04830000
C        1.31190000      -0.39860000       0.65860000
H       -0.87730000       1.88490000       0.38680000
H       -0.34080000       1.68910000      -1.26810000
H        1.91120000       2.08970000      -0.77010000
H        1.28240000       2.98350000       0.60680000
H        3.05490000       0.87130000       0.84610000
H        2.31660000       0.44250000       3.14210000
H        2.30290000       2.17130000       2.80980000
H        0.24240000       1.48570000       4.03920000
H       -0.14430000       2.13590000       2.46450000
H       -0.21300000      -0.74170000       3.43870000
H       -1.49930000       0.14970000       2.65310000
H       -0.29710000      -1.74390000       1.30600000
H       -0.33870000      -0.69650000      -0.86100000
H        1.94240000      -1.22090000       0.33790000
