20
Properties=species:S:1:pos:R:3 gdb_126589=T pbc="F F F"
C       -0.12460000       1.55060000       0.01280000
C        0.02700000       0.02710000       0.00420000
C        0.74490000      -0.50990000       1.24600000
C        0.89970000      -2.04100000       1.23390000
C        1.55100000      -2.56640000       2.47190000
N        2.74350000      -3.14680000       2.46570000
N        2.93030000      -3.43930000       3.77690000
C        1.86960000      -3.03320000       4.50050000
N        0.97460000      -2.47520000       3.71220000
H        0.85230000       2.04540000       0.05190000
H       -0.64190000       1.90630000      -0.88380000
H       -0.69840000       1.88580000       0.88390000
H       -0.96410000      -0.44000000      -0.07020000
H        0.57570000      -0.28210000      -0.89550000
H        1.73840000      -0.04950000       1.32540000
H        0.19620000      -0.21790000       2.14930000
H       -0.09180000      -2.50010000       1.13530000
H        1.49360000      -2.35720000       0.37080000
H        3.77330000      -3.90210000       4.07360000
H        1.79610000      -3.16440000       5.56990000
