18
Properties=species:S:1:pos:R:3 gdb_117515=T pbc="F F F"
C       -0.01540000       1.52390000       0.05280000
C       -0.19450000       0.01760000      -0.10720000
N        0.92570000      -0.54690000      -0.85390000
C        0.90050000      -1.96950000      -1.07830000
C       -0.39180000      -2.51210000      -1.57840000
N       -1.40800000      -2.91290000      -1.95850000
C        1.99730000      -2.32350000      -2.12360000
N        2.40000000      -3.61980000      -2.10050000
O        2.43790000      -1.48500000      -2.87700000
H        0.92730000       1.75190000       0.55790000
H       -0.00680000       2.02290000      -0.92270000
H       -0.83790000       1.94800000       0.63540000
H       -0.21620000      -0.46030000       0.88140000
H       -1.16900000      -0.19620000      -0.57800000
H        1.07880000      -0.08230000      -1.74410000
H        1.11810000      -2.49740000      -0.13910000
H        1.90400000      -4.31480000      -1.56820000
H        3.00340000      -3.93570000      -2.84340000
