16
Properties=species:S:1:pos:R:3 gdb_26994=T pbc="F F F"
C       -0.54020000       1.51700000       0.32880000
C       -0.19970000       0.08270000       0.08310000
C        0.17760000      -0.52990000      -1.08840000
C        0.33920000      -0.01020000      -2.48750000
C        1.42870000      -0.67310000      -3.20950000
N        2.26880000      -1.24380000      -3.76080000
N        0.35410000      -1.86250000      -0.76840000
C        0.09470000      -1.99090000       0.56100000
N       -0.24790000      -0.84660000       1.10240000
H       -0.29250000       2.14820000      -0.52970000
H       -1.60870000       1.64240000       0.53740000
H        0.00450000       1.89520000       1.19900000
H       -0.57710000      -0.13800000      -3.08140000
H        0.53730000       1.06600000      -2.45750000
H        0.70100000      -2.57590000      -1.38980000
H        0.17720000      -2.93720000       1.07450000
