23
Properties=species:S:1:pos:R:3 gdb_63185=T pbc="F F F"
C       -0.37490000       1.53160000      -0.12110000
C       -0.07320000       0.05470000      -0.01250000
O       -1.19170000      -0.74680000      -0.33250000
C        1.27510000      -0.55310000      -0.35770000
C        2.50970000       0.27890000      -0.69830000
C        3.40680000       0.52500000       0.52620000
C        2.61020000       1.14400000       1.68020000
C        1.48970000       0.20360000       2.17230000
C        0.75250000      -0.55980000       1.07940000
H        0.46910000       2.16500000       0.15450000
H       -0.65630000       1.78970000      -1.15060000
H       -1.21920000       1.78650000       0.52740000
H       -1.36510000      -0.64100000      -1.27490000
H        1.19570000      -1.50390000      -0.87590000
H        3.08220000      -0.23490000      -1.47740000
H        2.22260000       1.24700000      -1.12880000
H        3.84240000      -0.42790000       0.85590000
H        4.24370000       1.17640000       0.25060000
H        3.27280000       1.37440000       2.52160000
H        2.19630000       2.10580000       1.35330000
H        1.95120000      -0.54650000       2.82690000
H        0.78240000       0.75650000       2.80300000
H        0.34460000      -1.51080000       1.40830000
