11
Properties=species:S:1:pos:R:3 gdb_20306=T pbc="F F F"
C        0.01480000      -1.18110000      -0.00370000
C        0.02500000       0.02170000       0.00250000
C       -0.01190000       1.44430000       0.01060000
C       -1.23330000       2.14190000       0.03060000
N       -1.26190000       3.46320000       0.03810000
C       -0.05820000       4.04760000       0.02510000
N        1.12630000       3.43590000       0.00600000
N        1.15550000       2.11110000      -0.00140000
H        0.02280000      -2.24360000      -0.00940000
H       -2.17950000       1.60700000       0.04040000
H       -0.02820000       5.13290000       0.03050000
