19
Properties=species:S:1:pos:R:3 gdb_18790=T pbc="F F F"
C       -0.25450000       1.59310000       0.02340000
C        0.04640000       0.10270000       0.01490000
C        1.05620000      -0.52010000      -0.97680000
C        2.43510000       0.16480000      -1.06360000
C        2.79240000      -0.54940000       0.25260000
C        2.19710000       0.10210000       1.51400000
C        0.86050000      -0.57170000       1.14350000
N        1.56860000      -1.47140000       0.11720000
H        0.65260000       2.19730000       0.12160000
H       -0.75460000       1.89670000      -0.90300000
H       -0.91650000       1.85390000       0.85660000
H       -0.89250000      -0.45420000      -0.08530000
H        0.65340000      -0.95150000      -1.89620000
H        3.01600000      -0.22580000      -1.90320000
H        2.48100000       1.25780000      -1.08850000
H        3.78110000      -1.00640000       0.33280000
H        2.61630000      -0.33110000       2.42590000
H        2.23280000       1.19240000       1.59960000
H        0.29810000      -1.04510000       1.95180000
