15
Properties=species:S:1:pos:R:3 gdb_12473=T pbc="F F F"
O       -0.04670000      -0.13380000      -0.00740000
C       -0.04320000       1.06970000      -0.09880000
O       -1.24020000       1.67920000      -0.39590000
C       -1.29290000       3.01710000      -0.85990000
C       -0.95870000       4.05140000       0.21480000
N        0.47190000       4.21530000       0.36680000
C        1.35720000       3.18810000       0.34950000
C        1.16580000       1.86660000       0.11470000
H       -0.64170000       3.15850000      -1.73130000
H       -2.32850000       3.15950000      -1.17860000
H       -1.38060000       5.02020000      -0.07130000
H       -1.43830000       3.73890000       1.15400000
H        0.80870000       5.10930000       0.67820000
H        2.37580000       3.51210000       0.54690000
H        2.04650000       1.24070000       0.18140000
