18
Properties=species:S:1:pos:R:3 gdb_54412=T pbc="F F F"
O        0.35060000       0.53620000      -0.99120000
C        0.06300000       1.17070000       0.02840000
O        0.62000000       1.35930000       1.12710000
C       -1.31110000       1.93020000      -0.02810000
C       -2.31230000       1.75330000       1.14150000
N       -2.82430000       3.12560000       0.68800000
H       -3.38960000       3.72710000       1.29140000
C       -1.35520000       3.42740000       0.36910000
C       -3.40120000       2.82200000      -0.68490000
C       -2.26070000       1.91340000      -1.24130000
H       -3.07910000       0.97790000       1.10580000
H       -1.82420000       1.82900000       2.11110000
H       -0.79830000       3.62340000       1.28330000
H       -1.23290000       4.20730000      -0.38400000
H       -4.36520000       2.32740000      -0.55320000
H       -3.54350000       3.76470000      -1.21630000
H       -1.78960000       2.32990000      -2.13150000
H       -2.60380000       0.90550000      -1.47430000
