19
Properties=species:S:1:pos:R:3 gdb_92069=T pbc="F F F"
C       -0.04260000       1.45140000      -0.07580000
N        0.02560000       0.01520000       0.12950000
C       -1.24370000      -0.71210000       0.18460000
C       -1.15170000      -1.95460000       1.05420000
N       -1.07790000      -3.24180000       0.34070000
C        0.12600000      -2.70290000       0.99890000
C        1.20430000      -2.14460000       0.08840000
C        1.23750000      -0.61760000       0.01440000
O        2.28690000      -0.01780000      -0.15170000
H        0.97490000       1.83950000      -0.08420000
H       -0.52640000       1.69780000      -1.03060000
H       -0.61430000       1.92510000       0.73080000
H       -1.99180000      -0.02350000       0.58970000
H       -1.57980000      -1.00010000      -0.82120000
H       -1.69180000      -1.92200000       1.99580000
H       -1.48770000      -3.97690000       0.91130000
H        0.46710000      -3.19110000       1.90750000
H        2.20390000      -2.45940000       0.39210000
H        1.03910000      -2.52140000      -0.92820000
