17
Properties=species:S:1:pos:R:3 gdb_49992=T pbc="F F F"
O       -0.01950000      -0.02590000      -0.31540000
C        0.06610000       1.11090000       0.07750000
C        1.30690000       1.91590000       0.08060000
C        1.17540000       3.42590000      -0.13310000
C        1.53410000       2.90660000       1.20800000
C        0.75030000       3.11150000       2.53510000
C        2.11360000       3.35160000       3.20990000
O        2.90300000       2.17700000       3.00820000
C        2.83970000       3.13610000       1.94550000
H       -0.82610000       1.65160000       0.47540000
H        2.17580000       1.41330000      -0.33070000
H        1.93990000       3.90070000      -0.73900000
H        0.17430000       3.82100000      -0.28030000
H        0.11210000       3.99870000       2.51160000
H        0.19210000       2.25870000       2.92720000
H        2.35100000       3.97700000       4.06180000
H        3.77450000       3.53800000       1.57180000
