17
Properties=species:S:1:pos:R:3 gdb_37850=T pbc="F F F"
C       -0.08480000       1.59880000       0.01210000
C        1.41590000       1.83630000      -0.00150000
C        2.11210000       0.83810000       0.97190000
O        3.12130000       0.55710000      -0.02530000
C        2.09260000       0.84870000      -0.99920000
C        1.08840000      -0.38450000      -0.99590000
O        1.58510000      -1.32970000      -0.02020000
C        1.10790000      -0.39510000       0.97520000
C       -0.01320000       0.08120000       0.00320000
H       -0.57460000       2.00000000       0.90610000
H       -0.59210000       2.00960000      -0.86770000
H        1.79970000       2.85520000       0.00020000
H        2.52180000       1.13110000       1.93930000
H        2.48310000       1.15210000      -1.97130000
H        0.86800000      -0.83150000      -1.96600000
H        0.90670000      -0.85260000       1.94460000
H       -0.93310000      -0.50120000       0.00920000
