20
Properties=species:S:1:pos:R:3 gdb_61792=T pbc="F F F"
C        0.34300000       1.48630000       0.00060000
C       -0.05800000       0.00590000      -0.02710000
C        0.68190000      -0.81230000       1.03130000
O        1.64820000      -0.43630000       1.64050000
N       -1.48310000      -0.31130000       0.06630000
C       -2.13960000       0.20390000       1.26410000
C       -2.25900000      -0.05880000      -1.13330000
C       -3.47700000      -0.97300000      -1.20210000
O       -4.50950000      -0.69140000      -1.74880000
H        1.42830000       1.57560000      -0.08370000
H       -0.11900000       2.03340000      -0.82590000
H        0.05040000       1.96230000       0.94020000
H        0.28490000      -0.43080000      -0.97920000
H        0.24420000      -1.82500000       1.18040000
H       -2.28820000       1.29660000       1.25060000
H       -3.12430000      -0.26230000       1.37310000
H       -1.55450000      -0.04960000       2.15320000
H       -2.59620000       0.98410000      -1.25760000
H       -1.64690000      -0.30670000      -2.01160000
H       -3.31190000      -1.95960000      -0.71120000
