16
Properties=species:S:1:pos:R:3 gdb_49499=T pbc="F F F"
O       -0.95750000       1.11130000      -0.21680000
C        0.08780000       0.92350000       0.35660000
C        1.29830000       1.81550000       0.26560000
C        1.35040000       3.09330000      -0.62380000
C        0.35890000       3.80230000       0.33300000
C        1.43850000       3.07500000       1.19700000
N        2.46140000       3.67430000       0.25000000
C        1.58230000       3.08730000       2.68290000
O        1.28180000       2.15210000       3.38150000
H        0.22760000       0.04110000       1.01840000
H        2.21020000       1.20610000       0.26170000
H        1.39320000       3.14580000      -1.71080000
H        0.43320000       4.88890000       0.34770000
H       -0.65770000       3.42170000       0.37350000
H        3.28020000       3.05690000       0.21120000
H        1.97830000       4.03780000       3.10240000
