15
Properties=species:S:1:pos:R:3 gdb_43907=T pbc="F F F"
O       -0.00680000       0.00960000       0.05090000
C        0.02720000       1.20510000      -0.01120000
N       -0.96430000       2.17080000      -0.04070000
C       -0.07670000       3.33560000      -0.05650000
C        0.44180000       3.80770000       1.34120000
N        1.43550000       2.70320000       1.37660000
C        1.12260000       2.30770000      -0.01630000
C       -0.33040000       4.32480000      -1.07150000
C       -0.53390000       5.17300000      -1.89940000
H       -1.95350000       2.10970000       0.15730000
H        0.88510000       4.80680000       1.28060000
H       -0.29120000       3.78280000       2.15390000
H        2.38800000       3.02200000       1.49840000
H        1.93010000       2.26690000      -0.74580000
H       -0.71620000       5.91330000      -2.63900000
