16
Properties=species:S:1:pos:R:3 gdb_68988=T pbc="F F F"
O       -0.77690000       0.97120000       0.75370000
C       -0.28040000      -0.15510000       0.14010000
C       -0.16230000      -1.51780000       0.79550000
C       -0.99270000      -1.34790000      -0.45140000
C       -2.42350000      -1.76010000      -0.67740000
C       -3.22900000      -1.71850000       0.53990000
N       -3.85540000      -1.69180000       1.51000000
O       -0.15500000      -1.35820000      -1.60920000
C        0.52090000      -0.14540000      -1.16000000
H       -0.32110000       1.09750000       1.59260000
H        0.76190000      -2.08930000       0.75980000
H       -0.74110000      -1.60900000       1.71030000
H       -2.87950000      -1.11490000      -1.43710000
H       -2.44150000      -2.78270000      -1.07630000
H        0.26700000       0.70020000      -1.80790000
H        1.60770000      -0.27220000      -1.10480000
