19
Properties=species:S:1:pos:R:3 gdb_83029=T pbc="F F F"
C       -0.13510000       1.56030000       0.01390000
C        0.03860000       0.06000000      -0.04880000
C        0.71740000      -0.67480000      -1.17910000
C        1.66270000       0.09620000      -2.10640000
C        2.77380000       0.55360000      -1.19460000
C        2.60750000       0.10920000       0.06430000
C        3.55570000       0.35510000       1.15370000
O        3.42130000      -0.05540000       2.28550000
C        1.34700000      -0.67240000       0.21360000
H        0.75690000       2.09890000      -0.31500000
H       -0.97040000       1.87920000      -0.61990000
H       -0.35370000       1.88080000       1.03800000
H       -0.81860000      -0.48170000       0.34520000
H        0.23610000      -1.56330000      -1.57070000
H        2.05550000      -0.54380000      -2.90770000
H        1.17560000       0.94260000      -2.60960000
H        3.59440000       1.18250000      -1.52560000
H        4.44700000       0.95490000       0.86090000
H        1.34100000      -1.52960000       0.87560000
