16
Properties=species:S:1:pos:R:3 gdb_41143=T pbc="F F F"
C       -0.01330000       1.49360000      -0.00420000
O        1.42940000       1.48960000       0.16600000
C        1.52170000       0.07560000      -0.12030000
C        1.66170000      -0.80180000       1.15000000
C        0.12050000      -0.80060000       1.30240000
O       -0.52910000      -2.06100000       1.00860000
C       -1.05520000      -1.91620000      -0.23600000
N       -0.86960000      -0.84180000      -0.89290000
C       -0.03310000      -0.02960000      -0.04390000
H       -0.53080000       1.98950000       0.82530000
H       -0.30660000       1.95580000      -0.95470000
H        2.13140000      -0.13970000      -1.00130000
H        2.05170000      -1.80300000       0.94840000
H        2.22510000      -0.34370000       1.96560000
H       -0.30660000      -0.40260000       2.22570000
H       -1.62020000      -2.77470000      -0.58170000
