13
Properties=species:S:1:pos:R:3 gdb_133317=T pbc="F F F"
N       -0.03550000       1.36080000      -0.14210000
C       -0.00890000      -0.01030000      -0.05790000
C       -1.18880000      -0.76020000      -0.08370000
F       -2.39240000      -0.15270000      -0.12640000
C       -1.11560000      -2.13290000      -0.05670000
O       -2.20010000      -2.93370000      -0.07630000
C        0.17850000      -2.67910000      -0.00550000
N        1.27080000      -1.93230000       0.02600000
N        1.18950000      -0.60580000       0.00640000
H        0.83390000       1.80030000       0.12250000
H       -0.86980000       1.82310000       0.18220000
H       -2.99190000      -2.38240000      -0.11680000
H        0.31170000      -3.75540000       0.01570000
