17
Properties=species:S:1:pos:R:3 gdb_45602=T pbc="F F F"
O        0.12330000       0.51360000       1.05530000
C        0.13410000       1.47250000       0.35490000
O       -0.94150000       2.10520000      -0.22720000
C       -0.10780000       3.19180000      -0.76670000
C       -0.32260000       4.51910000      -0.06120000
C       -0.01470000       4.38550000       1.43790000
C        1.40200000       3.81890000       1.70440000
O        2.01490000       3.19730000       0.56520000
C        1.15920000       2.46950000      -0.25140000
H       -0.24070000       3.24850000      -1.84860000
H        0.34630000       5.25050000      -0.53120000
H       -1.34740000       4.87160000      -0.21370000
H       -0.11230000       5.35790000       1.92820000
H       -0.76800000       3.73370000       1.88950000
H        2.09650000       4.61710000       1.97800000
H        1.37320000       3.09920000       2.53290000
H        1.77100000       2.00200000      -1.02640000
