19
Properties=species:S:1:pos:R:3 gdb_77478=T pbc="F F F"
C       -0.26110000       1.55340000      -0.03870000
C        0.05080000       0.06010000      -0.04350000
C        1.22600000      -0.48610000      -0.92850000
C        1.80320000      -1.20940000       0.28880000
O        2.44660000      -2.43190000       0.27270000
C        2.12390000      -0.23790000       1.37840000
O        2.60640000       1.06590000       1.18110000
C        0.68100000      -0.59500000       1.19100000
O       -0.07830000      -1.16560000       2.19920000
H        0.63400000       2.13970000       0.17710000
H       -0.66380000       1.87100000      -1.00700000
H       -1.01580000       1.78690000       0.72100000
H       -0.85690000      -0.50510000      -0.28240000
H        0.88630000      -1.16910000      -1.71200000
H        1.87670000       0.27120000      -1.37570000
H        1.84130000      -3.08780000      -0.09150000
H        2.54580000      -0.75250000       2.24510000
H        3.51720000       1.00020000       0.87360000
H       -0.02100000      -0.60910000       2.98290000
