19
Properties=species:S:1:pos:R:3 gdb_126684=T pbc="F F F"
C        0.11770000       1.60340000       0.18610000
C       -0.00340000       0.07810000       0.04470000
N        0.66400000      -0.69520000       1.07890000
C        0.02480000      -0.76650000       2.38280000
C        2.03810000      -0.79800000       1.02840000
C        2.91540000      -0.53870000      -0.01250000
N        4.12560000      -0.89070000       0.50430000
N        4.02900000      -1.32140000       1.76100000
N        2.76400000      -1.26320000       2.09030000
H        1.16540000       1.91860000       0.17520000
H       -0.39890000       2.10590000      -0.63820000
H       -0.32890000       1.94940000       1.12320000
H       -1.06100000      -0.20920000       0.05270000
H        0.39060000      -0.23970000      -0.92830000
H        0.47790000      -1.56940000       2.96480000
H        0.11700000       0.16280000       2.96620000
H       -1.03840000      -0.98310000       2.24180000
H        2.79910000      -0.15950000      -1.01140000
H        5.03060000      -0.85240000       0.06420000
