19
Properties=species:S:1:pos:R:3 gdb_32439=T pbc="F F F"
C        0.04830000       1.39620000       0.05900000
N       -0.14310000      -0.03720000      -0.07310000
C        0.56790000      -0.68360000      -1.08210000
C        1.25530000      -0.16260000      -2.13640000
O        1.74510000      -1.17850000      -2.92380000
C        1.36480000      -2.35440000      -2.36320000
C        1.77170000      -3.61420000      -3.03370000
C        0.64430000      -2.12060000      -1.22970000
N        0.07320000      -3.11370000      -0.38720000
H        1.10340000       1.68880000       0.18810000
H       -0.32910000       1.89690000      -0.83950000
H       -0.52580000       1.76320000       0.91320000
H       -0.07260000      -0.52750000       0.80910000
H        1.46930000       0.83640000      -2.47240000
H        1.47770000      -3.61610000      -4.08910000
H        2.85680000      -3.76990000      -2.99660000
H        1.28460000      -4.45210000      -2.53000000
H        0.62580000      -3.27510000       0.44970000
H       -0.85810000      -2.84310000      -0.08660000
