18
Properties=species:S:1:pos:R:3 gdb_120184=T pbc="F F F"
O       -0.05500000       1.44820000      -0.01110000
C       -0.00590000       0.04080000       0.15750000
C       -1.39730000      -0.50740000      -0.14240000
C       -1.44600000      -2.02760000      -0.08460000
C       -1.48680000      -2.74200000       1.30840000
N       -2.92340000      -2.23500000       1.42880000
C       -2.84110000      -2.72510000      -0.01750000
C       -2.11170000      -3.95240000       0.57640000
O       -2.15630000      -5.14250000       0.60740000
H        0.81300000       1.80770000       0.19350000
H        0.73330000      -0.41640000      -0.52190000
H        0.28790000      -0.22880000       1.18510000
H       -2.11440000      -0.07490000       0.55790000
H       -1.68270000      -0.17870000      -1.14900000
H       -0.75230000      -2.48360000      -0.79760000
H       -0.78400000      -2.68410000       2.13750000
H       -3.49020000      -2.86780000       2.00030000
H       -3.68170000      -2.64120000      -0.70390000
