16
Properties=species:S:1:pos:R:3 gdb_24774=T pbc="F F F"
N       -0.06090000       1.29730000       0.40960000
C       -0.00390000       0.06960000       0.04420000
C       -1.23380000      -0.73650000      -0.03100000
C       -1.10150000      -2.00950000      -0.41950000
C       -1.80520000      -3.32430000      -0.71160000
C       -0.37680000      -3.88440000      -1.06090000
N        0.13560000      -2.54380000      -0.73610000
C        1.26170000      -1.78850000      -0.66250000
N        1.23240000      -0.55370000      -0.29850000
H        0.88650000       1.68080000       0.39820000
H       -2.17950000      -0.27880000       0.22540000
H       -2.28470000      -3.79850000       0.14670000
H       -2.50520000      -3.30360000      -1.54880000
H       -0.00550000      -4.67260000      -0.40020000
H       -0.22720000      -4.17500000      -2.10440000
H        2.20350000      -2.26810000      -0.92490000
