16
Properties=species:S:1:pos:R:3 gdb_97258=T pbc="F F F"
C       -0.61550000       1.13400000       0.26810000
C        0.15640000      -0.13350000       0.00030000
O        0.92260000      -0.62950000       0.78310000
C       -0.00070000      -0.80470000      -1.41640000
N        0.12670000      -2.23500000      -1.34150000
C        1.31490000      -2.69880000      -1.33100000
N        1.57280000      -4.03370000      -1.24970000
C       -1.26450000      -0.43580000      -2.07000000
N       -2.25340000      -0.11430000      -2.57330000
H       -0.48840000       1.84790000      -0.55280000
H       -1.68650000       0.90940000       0.31690000
H       -0.28380000       1.57400000       1.20880000
H        0.80590000      -0.32240000      -2.00370000
H        2.21680000      -2.08300000      -1.43530000
H        0.80520000      -4.62530000      -0.96870000
H        2.49010000      -4.32640000      -0.95950000
