13
Properties=species:S:1:pos:R:3 gdb_130231=T pbc="F F F"
N        0.04760000       1.34090000       0.38740000
C       -0.03300000       0.00030000       0.03940000
N       -1.18730000      -0.53650000      -0.13900000
O       -1.18930000      -1.94320000      -0.33030000
C       -0.05850000      -2.66230000      -0.62020000
N       -0.11360000      -3.86750000      -0.99160000
C        1.28150000      -1.99780000      -0.41310000
O        2.34520000      -2.54890000      -0.52040000
N        1.17110000      -0.66600000      -0.04760000
H        0.67410000       1.88230000      -0.19700000
H       -0.87300000       1.76120000       0.42190000
H       -1.08700000      -4.17170000      -1.06820000
H        2.02830000      -0.19570000       0.20960000
