22
Properties=species:S:1:pos:R:3 gdb_9845=T pbc="F F F"
C        0.19220000       1.45390000      -0.24380000
C       -0.04770000      -0.05440000      -0.36490000
C       -1.44340000      -0.52700000       0.10560000
C       -2.55530000       0.02840000      -0.79370000
C       -1.45660000      -2.05740000       0.21250000
C       -0.71650000      -2.64210000       1.40090000
C       -2.50940000      -2.88530000      -0.40130000
O       -1.23150000      -2.75260000      -1.02820000
H        1.21740000       1.70570000      -0.53300000
H       -0.47710000       2.03460000      -0.88540000
H        0.04560000       1.79800000       0.78670000
H        0.09050000      -0.37690000      -1.40360000
H        0.72360000      -0.57270000       0.21530000
H       -1.60320000      -0.14260000       1.12350000
H       -3.54820000      -0.20390000      -0.39780000
H       -2.48590000       1.11570000      -0.87670000
H       -2.47910000      -0.38980000      -1.80310000
H       -1.20460000      -2.35030000       2.33730000
H       -0.70400000      -3.73300000       1.34060000
H        0.32060000      -2.29630000       1.44340000
H       -2.72070000      -3.86810000       0.02080000
H       -3.33990000      -2.43280000      -0.93660000
