21
Properties=species:S:1:pos:R:3 gdb_88384=T pbc="F F F"
C        1.68640000       0.89370000      -1.00390000
N        0.90950000      -0.16910000      -0.38360000
C        1.58720000      -1.29800000       0.22990000
C        0.79720000      -0.33740000       1.05910000
C        1.41400000       0.55400000       2.16370000
C        0.86230000       0.04560000       3.52040000
C        2.95780000       0.56690000       2.23790000
C        0.93680000       1.93710000       1.97060000
N        0.56440000       3.02240000       1.82870000
H        2.69370000       1.03940000      -0.58730000
H        1.80000000       0.65390000      -2.06580000
H        1.14100000       1.83710000      -0.92280000
H        1.19280000      -2.28600000       0.00240000
H        2.67230000      -1.25640000       0.30990000
H       -0.21020000      -0.64000000       1.34210000
H        1.16680000      -0.99490000       3.66730000
H        1.25390000       0.64460000       4.34620000
H       -0.22890000       0.09540000       3.54700000
H        3.42070000       0.93260000       1.32110000
H        3.28100000       1.21620000       3.05640000
H        3.32540000      -0.44320000       2.43630000
