17
Properties=species:S:1:pos:R:3 gdb_14684=T pbc="F F F"
C        0.52730000       0.95050000       0.53110000
C       -0.30640000       0.04290000      -0.37890000
N        0.37620000      -0.78680000      -1.35800000
C        1.62520000      -0.77640000      -1.45390000
O        2.23740000      -1.58700000      -2.35690000
C        3.63220000      -1.42940000      -2.52620000
C        4.23800000      -2.78720000      -2.85020000
O        5.36100000      -2.92640000      -3.25230000
H        1.22310000       0.37790000       1.15390000
H        1.10520000       1.68380000      -0.04160000
H       -0.13670000       1.50420000       1.20150000
H       -0.91380000      -0.63140000       0.23910000
H       -1.03180000       0.65280000      -0.93300000
H        2.32670000      -0.17350000      -0.86300000
H        3.86040000      -0.72790000      -3.33880000
H        4.11290000      -1.05000000      -1.61170000
H        3.54780000      -3.63960000      -2.66940000
