12
Properties=species:S:1:pos:R:3 gdb_42972=T pbc="F F F"
O       -0.02030000       0.00300000      -0.10900000
C       -0.02700000       1.19970000      -0.03240000
C       -1.24160000       2.12150000       0.00940000
O       -1.26370000       2.93410000       1.19230000
C       -0.72410000       3.49340000      -0.02070000
C        0.77180000       3.40700000      -0.05930000
C        1.17440000       2.12320000      -0.01300000
C        2.50820000       1.64350000       0.04900000
N        3.59050000       1.23580000       0.09400000
H       -2.19680000       1.79730000      -0.38920000
H       -1.26240000       4.33500000      -0.44140000
H        1.42350000       4.27120000      -0.07750000
