13
Properties=species:S:1:pos:R:3 gdb_21560=T pbc="F F F"
N        0.12410000       1.40530000       0.13030000
C       -0.03800000       0.02220000       0.03720000
C       -1.15430000      -0.78760000       0.02250000
C       -0.63800000      -2.11250000       0.00260000
N        0.69860000      -2.12460000      -0.00100000
N        1.03300000      -0.81470000       0.02710000
C       -1.38890000      -3.31540000      -0.02460000
C       -2.05950000      -4.31440000      -0.04710000
H        0.75370000       1.78600000      -0.56690000
H       -0.76180000       1.88960000       0.07580000
H       -2.18770000      -0.48420000       0.01120000
H        2.00460000      -0.56170000       0.09210000
H       -2.64050000      -5.20270000      -0.06590000
