17
Properties=species:S:1:pos:R:3 gdb_15813=T pbc="F F F"
C       -0.00380000       1.47690000       0.37780000
C        0.00560000       0.01220000      -0.01300000
O       -1.35920000      -0.45820000       0.02520000
C       -1.54600000      -1.74360000      -0.30860000
O       -0.65900000      -2.50620000      -0.62000000
C       -2.98680000      -2.12290000      -0.24380000
C       -3.50390000      -2.94940000      -1.37840000
N       -3.28700000      -3.55210000      -0.06900000
H        1.01680000       1.87040000       0.36190000
H       -0.61030000       2.06310000      -0.31820000
H       -0.40910000       1.61020000       1.38470000
H        0.40360000      -0.14350000      -1.02040000
H        0.60470000      -0.59380000       0.67360000
H       -3.64310000      -1.42810000       0.26740000
H       -4.54240000      -2.83440000      -1.67430000
H       -2.80600000      -3.17670000      -2.17890000
H       -2.39550000      -4.04780000      -0.08390000
