18
Properties=species:S:1:pos:R:3 gdb_113733=T pbc="F F F"
C       -0.41920000       1.51200000       0.35590000
C        0.23180000       0.22480000      -0.16610000
C        1.04840000      -0.45770000       0.90380000
O        0.34470000      -1.17910000       1.93090000
C        1.21420000      -1.90870000       1.07280000
C        0.57070000      -2.92980000       0.14290000
O        1.37020000      -3.18360000      -0.99770000
C        0.27750000      -4.17680000       0.88000000
N        0.09640000      -5.16420000       1.45200000
H        0.33580000       2.22260000       0.70880000
H       -0.99960000       2.00290000      -0.43020000
H       -1.09090000       1.29340000       1.19120000
H       -0.54200000      -0.44980000      -0.54380000
H        0.89530000       0.45090000      -1.01010000
H        1.86080000       0.15630000       1.30060000
H        2.12730000      -2.27180000       1.55090000
H       -0.37570000      -2.53140000      -0.22990000
H        2.16550000      -3.65150000      -0.71760000
