22
Properties=species:S:1:pos:R:3 gdb_5895=T pbc="F F F"
C        0.08830000       1.36970000      -0.11560000
O        0.04630000      -0.03460000      -0.06580000
C       -1.26870000      -0.53720000       0.06850000
C       -1.18680000      -2.05820000       0.12330000
C       -2.54770000      -2.78300000       0.05370000
C       -2.32450000      -4.30190000       0.05230000
C       -3.47820000      -2.38500000       1.20350000
O       -3.24890000      -2.39990000      -1.13900000
H        1.13520000       1.66450000      -0.22400000
H       -0.48310000       1.76760000      -0.96990000
H       -0.31480000       1.82560000       0.80340000
H       -1.73420000      -0.13100000       0.98160000
H       -1.89450000      -0.22580000      -0.78230000
H       -0.56910000      -2.38790000      -0.72280000
H       -0.65150000      -2.36140000       1.03060000
H       -1.85010000      -4.63770000       0.98000000
H       -3.28040000      -4.82190000      -0.05790000
H       -1.67360000      -4.59940000      -0.77860000
H       -3.73430000      -1.32430000       1.14970000
H       -4.40870000      -2.95670000       1.14580000
H       -3.00760000      -2.58230000       2.17110000
H       -2.72730000      -2.69650000      -1.89290000
