20
Properties=species:S:1:pos:R:3 gdb_66220=T pbc="F F F"
C        0.29130000       1.54800000      -0.40360000
C        0.01350000       0.08020000      -0.15750000
C       -1.41630000      -0.39860000      -0.35070000
C       -2.39430000       0.20550000       0.66580000
C       -3.80910000      -0.38690000       0.51380000
C       -4.76520000       0.19110000       1.45580000
N       -5.50910000       0.66070000       2.20500000
C        1.11150000      -0.89100000      -0.28160000
O        0.65590000      -0.46730000       1.00590000
H        1.34770000       1.76920000      -0.23460000
H        0.03720000       1.82450000      -1.43260000
H       -0.29500000       2.18130000       0.26950000
H       -1.74280000      -0.16080000      -1.37210000
H       -1.43100000      -1.49060000      -0.25760000
H       -2.02710000       0.01360000       1.67880000
H       -2.45320000       1.29210000       0.54800000
H       -4.18430000      -0.22180000      -0.50340000
H       -3.78480000      -1.47240000       0.66570000
H        0.89460000      -1.92770000      -0.53760000
H        2.10670000      -0.54680000      -0.56100000
