15
Properties=species:S:1:pos:R:3 gdb_128082=T pbc="F F F"
C        0.00870000       1.49310000      -0.02870000
N       -0.04820000       0.04020000      -0.06300000
C       -1.21180000      -0.61690000       0.17100000
O       -2.26780000      -0.10490000       0.46030000
N       -1.10330000      -2.04010000       0.06410000
C       -0.01430000      -2.88480000       0.03090000
N       -0.39270000      -4.12650000      -0.06020000
N       -1.78220000      -4.13370000      -0.09190000
C       -2.17820000      -2.89640000      -0.00880000
H        0.96360000       1.81530000       0.39370000
H       -0.10710000       1.93040000      -1.02700000
H       -0.80580000       1.84820000       0.60210000
H        0.71000000      -0.45410000      -0.50260000
H        1.00790000      -2.55040000       0.11200000
H       -3.19370000      -2.53700000       0.00170000
