17
Properties=species:S:1:pos:R:3 gdb_126225=T pbc="F F F"
C        0.18680000       1.59670000      -0.18670000
C       -0.01020000       0.08440000       0.02210000
C        0.59590000      -0.42380000       1.28230000
C        0.04690000      -0.86610000       2.44980000
N       -1.32380000      -0.98970000       2.77620000
C        1.19360000      -1.20030000       3.23150000
O        1.13580000      -1.70770000       4.47550000
N        2.32280000      -0.98240000       2.60870000
O        1.94230000      -0.46630000       1.36110000
H        1.25010000       1.84970000      -0.21570000
H       -0.26760000       1.91540000      -1.12920000
H       -0.27390000       2.16890000       0.62440000
H       -1.07600000      -0.16250000       0.05510000
H        0.42550000      -0.46030000      -0.82390000
H       -1.69750000      -0.13260000       3.17160000
H       -1.45800000      -1.71780000       3.46960000
H        2.04160000      -1.87830000       4.76600000
