10
Properties=species:S:1:pos:R:3 gdb_1023=T pbc="F F F"
N        0.00090000      -1.15240000      -0.00310000
C       -0.00590000       0.00540000       0.00290000
C       -0.00110000       1.42200000       0.01060000
C       -1.09790000       2.23900000       0.02950000
O       -0.71730000       3.53000000       0.03140000
C        0.64630000       3.55470000       0.01360000
C        1.14510000       2.29620000       0.00010000
H       -2.15670000       2.04300000       0.04240000
H        1.09520000       4.53340000       0.01300000
H        2.18100000       2.00040000      -0.01520000
