23
Properties=species:S:1:pos:R:3 gdb_103376=T pbc="F F F"
C       -0.18120000       1.33550000       0.02030000
O        0.20500000      -0.02080000      -0.01380000
C        0.81950000      -0.53350000       1.16430000
C        2.17220000       0.13700000       1.37880000
C       -0.18960000      -0.72310000       2.35870000
C       -0.78880000      -1.89690000       1.52920000
C        0.69970000      -2.09330000       1.10970000
C        1.32970000      -2.53860000       2.44120000
C        0.66020000      -1.48640000       3.39370000
H        0.67800000       2.01990000       0.05850000
H       -0.73050000       1.52790000      -0.90510000
H       -0.84060000       1.56170000       0.87020000
H        2.05590000       1.18760000       1.66420000
H        2.76250000      -0.34440000       2.15910000
H        2.74580000       0.10360000       0.44690000
H       -0.80200000       0.09970000       2.73050000
H       -1.26130000      -2.71010000       2.08800000
H       -1.42290000      -1.56960000       0.70970000
H        0.97970000      -2.62970000       0.20250000
H        1.04990000      -3.56550000       2.69200000
H        2.42140000      -2.48670000       2.44460000
H        1.38700000      -0.85100000       3.90670000
H        0.03470000      -1.95410000       4.15920000
