14
Properties=species:S:1:pos:R:3 gdb_25003=T pbc="F F F"
N       -0.07020000       1.24390000       0.00790000
C       -0.02770000      -0.00840000       0.00080000
C       -1.24700000      -0.93800000       0.00250000
N       -0.59840000      -2.23090000      -0.00840000
C       -0.84940000      -3.58000000      -0.01440000
N        0.27250000      -4.25960000      -0.02450000
C        1.31080000      -3.33970000      -0.02520000
C        0.76050000      -2.09400000      -0.01520000
O        1.13030000      -0.77580000      -0.01000000
H        0.86390000       1.65420000       0.00500000
H       -1.85600000      -0.77260000       0.89580000
H       -1.86600000      -0.76270000      -0.88210000
H       -1.84660000      -3.99090000      -0.01110000
H        2.34530000      -3.63710000      -0.03270000
