18
Properties=species:S:1:pos:R:3 gdb_111485=T pbc="F F F"
O        0.17190000       1.36110000       0.04170000
C        0.11530000      -0.04590000       0.05940000
C       -1.33760000      -0.55650000       0.02510000
C       -1.55310000      -2.05470000      -0.02770000
C       -1.23290000      -2.84600000       1.18960000
N       -2.62840000      -2.47800000       0.91640000
C       -3.05420000      -1.28780000       1.65900000
C       -2.11580000      -0.13820000       1.27750000
O       -1.98920000       0.90890000       1.86780000
H       -0.37590000       1.66390000       0.77980000
H        0.65130000      -0.40080000      -0.82720000
H        0.62750000      -0.46830000       0.93930000
H       -1.83010000      -0.07600000      -0.83240000
H       -1.56520000      -2.54430000      -0.99630000
H       -1.01650000      -3.90640000       1.10610000
H       -0.71810000      -2.34630000       2.00970000
H       -4.07640000      -1.01830000       1.36300000
H       -3.05890000      -1.45280000       2.74040000
