22
Properties=species:S:1:pos:R:3 gdb_110288=T pbc="F F F"
C       -0.28390000       1.56350000       0.20680000
C       -0.09290000       0.05070000       0.14370000
C        0.44020000      -0.44460000      -1.22220000
C        1.68570000      -0.99690000      -0.57050000
C        1.19490000      -0.54440000       0.82410000
C        2.13490000       0.42430000       1.51580000
O        1.52590000       0.84280000       2.73130000
N        0.75240000      -1.85450000      -1.26430000
C       -0.04610000      -2.87240000      -0.60020000
H        0.56210000       2.09970000      -0.23660000
H       -1.17850000       1.85290000      -0.35510000
H       -0.39440000       1.90210000       1.23970000
H       -1.01930000      -0.43650000       0.46700000
H        0.32160000       0.08580000      -2.16310000
H        2.71890000      -0.98160000      -0.90670000
H        0.99540000      -1.36330000       1.52430000
H        3.08990000      -0.09170000       1.71000000
H        2.36030000       1.28280000       0.86540000
H        2.11160000       1.47430000       3.15940000
H       -0.44040000      -2.59500000       0.38730000
H       -0.89450000      -3.12430000      -1.24410000
H        0.56480000      -3.77260000      -0.47980000
