25
Properties=species:S:1:pos:R:3 gdb_83578=T pbc="F F F"
C       -0.05810000       1.53290000       0.00970000
C        0.04540000       0.00500000       0.00640000
C        0.92200000      -0.56230000      -1.13450000
C        2.36510000      -0.27200000      -0.64450000
C        2.27680000      -0.28140000       0.91220000
C        0.78760000      -0.57660000       1.23220000
C        0.51120000      -2.09240000       1.30410000
C        1.01220000      -2.82490000       0.04420000
C        0.65650000      -2.07700000      -1.25540000
H        0.92300000       2.01460000       0.06820000
H       -0.54710000       1.89380000      -0.90180000
H       -0.64720000       1.88320000       0.86440000
H       -0.97120000      -0.40390000      -0.05380000
H        0.71520000      -0.07780000      -2.09490000
H        3.07620000      -1.01140000      -1.02610000
H        2.70620000       0.70160000      -1.00760000
H        2.94050000      -1.02580000       1.36290000
H        2.57390000       0.68750000       1.32320000
H        0.47310000      -0.10340000       2.16880000
H        0.98590000      -2.52420000       2.19370000
H       -0.56930000      -2.24700000       1.42220000
H        2.10190000      -2.93190000       0.10540000
H        0.61510000      -3.84560000       0.01550000
H       -0.40360000      -2.22940000      -1.49690000
H        1.22910000      -2.49840000      -2.09060000
