21
Properties=species:S:1:pos:R:3 gdb_64186=T pbc="F F F"
C       -0.20410000       1.51600000      -0.00420000
C       -0.02280000      -0.00170000      -0.01910000
C       -1.33440000      -0.69900000      -0.37580000
C        1.23400000      -0.43880000      -0.81270000
O        1.99000000      -0.64530000       0.39640000
C        0.81200000      -0.56140000       1.21160000
C        1.01770000       0.29340000       2.45500000
C        0.33150000      -1.94700000       1.63390000
O        0.77760000      -2.98400000       1.22140000
H        0.74050000       2.03900000       0.16670000
H       -0.59560000       1.84890000      -0.97210000
H       -0.91590000       1.83170000       0.76600000
H       -1.68010000      -0.36380000      -1.36000000
H       -1.22670000      -1.78620000      -0.41640000
H       -2.12500000      -0.45970000       0.34430000
H        1.11160000      -1.37240000      -1.37570000
H        1.69220000       0.31980000      -1.45740000
H        1.33750000       1.30230000       2.19250000
H        0.09780000       0.35930000       3.04550000
H        1.79430000      -0.15410000       3.08450000
H       -0.50340000      -1.92780000       2.37490000
