17
Properties=species:S:1:pos:R:3 gdb_127827=T pbc="F F F"
C       -0.03980000       1.43290000       0.01270000
N       -0.05360000      -0.01620000       0.02970000
C        0.56260000      -0.61920000      -0.91810000
N        1.26760000      -0.03300000      -1.94910000
C        0.58010000      -2.09380000      -0.92240000
N        1.13210000      -2.76790000      -1.93430000
N        0.96250000      -4.05920000      -1.60910000
C        0.32090000      -4.22760000      -0.42320000
C        0.05390000      -2.96750000       0.05690000
H        0.98200000       1.84570000       0.00820000
H       -0.56190000       1.85130000      -0.86540000
H       -0.55110000       1.81390000       0.90060000
H        1.02890000       0.91160000      -2.20100000
H        1.51550000      -0.64290000      -2.71350000
H        1.30540000      -4.76950000      -2.23320000
H        0.11240000      -5.20970000      -0.02910000
H       -0.44300000      -2.68680000       0.96900000
