21
Properties=species:S:1:pos:R:3 gdb_63872=T pbc="F F F"
C       -0.09250000       1.59080000      -0.13790000
C       -0.00530000       0.06940000      -0.01230000
C       -1.36790000      -0.56690000      -0.30160000
C        1.13310000      -0.63750000      -0.83940000
C        1.73070000      -1.21050000       0.44700000
C        2.11380000      -0.13290000       1.38790000
C        0.64000000      -0.47560000       1.29050000
C       -0.04240000      -1.05620000       2.45710000
O        0.52390000      -1.55430000       3.40630000
H        0.86760000       2.07650000       0.05650000
H       -0.40980000       1.87770000      -1.14700000
H       -0.82300000       1.99970000       0.56930000
H       -1.67050000      -0.35250000      -1.33240000
H       -1.33850000      -1.65490000      -0.17930000
H       -2.14870000      -0.17420000       0.35890000
H        0.74090000      -1.39710000      -1.51900000
H        1.80010000       0.02430000      -1.40190000
H        2.04170000      -2.23690000       0.59820000
H        2.55790000      -0.45500000       2.32340000
H        2.46330000       0.82510000       1.01300000
H       -1.15320000      -1.03030000       2.41540000
