14
Properties=species:S:1:pos:R:3 gdb_8754=T pbc="F F F"
C       -0.02300000       1.45400000      -0.01840000
N       -0.00580000      -0.00730000      -0.00190000
C       -0.00770000      -0.66000000       1.22820000
O       -0.02190000      -0.08130000       2.28960000
C        0.01210000      -0.74580000      -1.19380000
N        0.03470000      -2.02550000      -1.18290000
C        0.00360000       0.03150000      -2.40530000
C       -0.00200000       0.61340000      -3.45820000
H        0.86490000       1.84990000      -0.51770000
H       -0.91350000       1.82890000      -0.52930000
H       -0.03360000       1.77750000       1.02140000
H        0.00470000      -1.75060000       1.11500000
H        0.04380000      -2.38510000      -2.13400000
H       -0.00710000       1.12820000      -4.38810000
