18
Properties=species:S:1:pos:R:3 gdb_39863=T pbc="F F F"
C        0.04900000       1.45690000      -0.01080000
O        1.16960000       0.55430000       0.02950000
C       -0.14110000       0.01010000       0.00740000
C       -0.61900000      -0.89010000       1.13920000
C        0.21210000      -2.14130000       0.78610000
N       -0.64770000      -2.26850000      -0.44680000
C       -1.78320000      -1.61020000       0.34140000
C       -2.16510000      -0.80780000      -0.90520000
C       -0.63780000      -0.87860000      -1.13060000
H       -0.10930000       2.03910000       0.89610000
H       -0.06730000       2.01210000      -0.94130000
H       -0.71280000      -0.47230000       2.14160000
H        1.28630000      -2.01970000       0.62440000
H        0.01910000      -3.00480000       1.42830000
H       -2.46800000      -2.25440000       0.89450000
H       -2.72180000      -1.43010000      -1.60830000
H       -2.62610000       0.17690000      -0.80340000
H       -0.15840000      -0.79680000      -2.10440000
