18
Properties=species:S:1:pos:R:3 gdb_30350=T pbc="F F F"
C        0.08310000       1.57520000      -0.10020000
C       -0.01980000       0.06140000       0.06210000
O        0.58160000      -0.57150000      -1.08900000
C        1.45120000      -1.65440000      -0.72880000
C        1.60230000      -1.53370000       0.75430000
C        2.26870000      -2.05510000       1.83370000
N        1.80910000      -1.37480000       2.94190000
C        0.86800000      -0.43420000       2.58170000
C        0.73030000      -0.52340000       1.21950000
H        1.13140000       1.88560000      -0.11570000
H       -0.39000000       1.88820000      -1.03540000
H       -0.42170000       2.08270000       0.72870000
H       -1.08550000      -0.22090000       0.09350000
H        1.00060000      -2.61250000      -1.03330000
H        2.39070000      -1.54170000      -1.28590000
H        3.01320000      -2.82870000       1.92940000
H        2.13070000      -1.53060000       3.88130000
H        0.40090000       0.19280000       3.32370000
