19
Properties=species:S:1:pos:R:3 gdb_78976=T pbc="F F F"
O        0.13840000       1.40620000       0.13540000
C        0.04650000       0.00320000       0.03320000
C       -1.37430000      -0.52980000      -0.24240000
C       -1.69850000       0.03120000      -1.64430000
C       -1.47610000      -1.31470000      -2.27770000
C       -0.36610000      -0.27750000      -2.33290000
C        0.68130000      -0.63280000      -1.23430000
C        0.39160000      -2.12610000      -0.96080000
C       -1.13970000      -1.95680000      -0.91600000
H       -0.25400000       1.77500000      -0.66490000
H        0.49100000      -0.39080000       0.95210000
H       -2.11870000      -0.44190000       0.54610000
H       -2.37590000       0.82920000      -1.92330000
H       -1.94090000      -1.76690000      -3.14500000
H       -0.10470000       0.19840000      -3.26850000
H        1.71040000      -0.34500000      -1.44520000
H        0.70390000      -2.78800000      -1.77460000
H        0.83660000      -2.48020000      -0.02510000
H       -1.74960000      -2.78800000      -0.56760000
