17
Properties=species:S:1:pos:R:3 gdb_11335=T pbc="F F F"
C       -0.22640000       1.29340000       0.62420000
N       -0.13020000      -0.12200000       0.30710000
C       -1.10080000      -0.71320000      -0.22950000
C       -1.13250000      -2.17170000      -0.63550000
C       -2.62540000      -2.46950000      -0.76610000
O       -3.08370000      -2.87740000       0.51270000
C       -3.16880000      -1.08770000      -1.16870000
O       -2.30660000      -0.13010000      -0.55270000
H        0.58130000       1.82950000       0.11230000
H       -1.18170000       1.75680000       0.35390000
H       -0.06160000       1.42970000       1.69930000
H       -0.62550000      -2.29720000      -1.59830000
H       -0.64250000      -2.80890000       0.09970000
H       -2.84820000      -3.22660000      -1.52960000
H       -4.03960000      -2.98410000       0.47500000
H       -3.15040000      -0.95490000      -2.25920000
H       -4.18830000      -0.91360000      -0.81070000
