18
Properties=species:S:1:pos:R:3 gdb_43697=T pbc="F F F"
O        0.09500000       0.05150000       0.30260000
C        0.01990000       1.21360000       0.03470000
C       -1.14990000       2.19640000      -0.13430000
C       -0.14530000       3.20210000      -0.78270000
C       -0.16300000       4.62900000      -0.24930000
C        0.94200000       5.50090000      -0.88060000
C        0.94050000       6.86840000      -0.36640000
N        0.92280000       7.94490000       0.05310000
C        1.05100000       2.28340000      -0.36490000
H       -1.99090000       1.84600000      -0.73760000
H       -1.53590000       2.53480000       0.83440000
H       -0.26000000       3.21020000      -1.87140000
H       -1.13740000       5.08960000      -0.44650000
H       -0.03580000       4.62110000       0.83990000
H        1.92790000       5.05990000      -0.69250000
H        0.81820000       5.53840000      -1.96940000
H        1.59940000       2.65410000       0.50980000
H        1.77580000       1.99000000      -1.12830000
