16
Properties=species:S:1:pos:R:3 gdb_12424=T pbc="F F F"
O        0.30580000       0.04680000      -0.55740000
C        0.10210000       1.16980000      -0.16880000
C       -1.30670000       1.63190000       0.21940000
C       -1.49360000       2.83590000       1.09990000
C       -0.66270000       3.32170000       2.03650000
C        0.69370000       2.87520000       2.32490000
C        1.54860000       2.37830000       1.41840000
C        1.20880000       2.21480000      -0.03970000
H       -1.82920000       1.80480000      -0.73320000
H       -1.81100000       0.75990000       0.65510000
H       -2.46540000       3.31430000       0.99870000
H       -1.03500000       4.13280000       2.65970000
H        1.03910000       3.00760000       3.34770000
H        2.53360000       2.04960000       1.73450000
H        2.07140000       1.88690000      -0.62110000
H        0.83080000       3.16550000      -0.44070000
