19
Properties=species:S:1:pos:R:3 gdb_74141=T pbc="F F F"
C       -0.00880000       1.52280000       0.01220000
C       -0.00520000      -0.01160000       0.03720000
C       -1.42280000      -0.58760000      -0.07010000
O        0.75680000      -0.47080000      -1.08760000
C        1.82630000      -1.23090000      -0.67320000
N        2.59930000      -1.72460000      -1.55120000
C        1.80820000      -1.27790000       0.78640000
C        0.75280000      -0.57220000       1.23060000
N        0.28520000      -0.38070000       2.50380000
H        1.01150000       1.90810000       0.08030000
H       -0.45010000       1.87220000      -0.92470000
H       -0.59910000       1.93700000       0.83700000
H       -1.89840000      -0.23070000      -0.98740000
H       -1.38440000      -1.67900000      -0.09820000
H       -2.03720000      -0.28370000       0.78290000
H        3.33830000      -2.25670000      -1.09530000
H        2.54430000      -1.80650000       1.37540000
H        0.91820000      -0.58900000       3.26060000
H       -0.28060000       0.43710000       2.66860000
