19
Properties=species:S:1:pos:R:3 gdb_74529=T pbc="F F F"
C        0.07110000       1.51920000       0.06160000
C       -0.00840000       0.02720000      -0.02670000
C       -0.04100000      -0.71730000      -1.14740000
C       -0.03180000      -2.17120000      -0.84020000
C        1.16970000      -2.77490000      -0.11710000
C        0.02550000      -2.23940000       0.67330000
C       -0.03490000      -0.83720000       1.24280000
O       -1.05750000      -3.17940000       0.76690000
C       -1.23920000      -3.10820000      -0.67920000
H        0.99010000       1.84020000       0.56860000
H        0.05110000       1.98360000      -0.92790000
H       -0.76360000       1.92440000       0.64780000
H       -0.04090000      -0.30000000      -2.14950000
H        1.31990000      -3.85010000      -0.14300000
H        2.07360000      -2.17700000      -0.14670000
H        0.79140000      -0.59480000       1.92240000
H       -0.96370000      -0.68960000       1.80810000
H       -2.19360000      -2.63190000      -0.92860000
H       -1.18410000      -4.09860000      -1.14630000
