17
Properties=species:S:1:pos:R:3 gdb_45492=T pbc="F F F"
O        0.04710000      -0.04780000      -0.02460000
C        0.02230000       1.16220000      -0.04170000
N       -1.10660000       1.95410000      -0.03180000
C       -0.82790000       3.37750000       0.16190000
C       -0.82570000       3.73180000       1.66140000
C        0.46520000       3.03520000       2.14970000
N        1.40910000       3.07880000       1.00120000
C        0.66820000       3.48520000      -0.19180000
C        1.20500000       2.10460000      -0.10390000
H       -1.97740000       1.54260000       0.27260000
H       -1.48370000       3.99960000      -0.45070000
H       -0.74570000       4.81750000       1.78500000
H       -1.72710000       3.39740000       2.18350000
H        0.92680000       3.55950000       2.98970000
H        0.28080000       2.00360000       2.46570000
H        1.05710000       4.27710000      -0.82190000
H        2.11090000       1.74980000      -0.58120000
