16
Properties=species:S:1:pos:R:3 gdb_85203=T pbc="F F F"
O       -0.02780000       1.41500000      -0.13790000
C        0.04370000       0.01670000       0.04430000
C        0.22900000      -0.40360000       1.53640000
C       -1.30080000      -0.56240000       1.60470000
O       -2.10430000      -0.56340000       2.48670000
C       -1.40960000      -0.55060000       0.06530000
C       -2.52530000       0.26140000      -0.60170000
C       -3.81750000      -0.41760000      -0.54560000
N       -4.83310000      -0.96770000      -0.52250000
H        0.84550000       1.79050000       0.01160000
H        0.72310000      -0.45250000      -0.67590000
H        0.74180000      -1.36350000       1.65680000
H        0.67560000       0.33390000       2.20740000
H       -1.41160000      -1.58350000      -0.29970000
H       -2.60810000       1.24220000      -0.12600000
H       -2.27270000       0.44240000      -1.65230000
