16
Properties=species:S:1:pos:R:3 gdb_24523=T pbc="F F F"
N        0.00330000       1.34610000       0.00940000
C        1.13920000       2.08520000       0.00280000
C        2.37260000       1.47260000      -0.01250000
C        2.46440000       0.06550000      -0.02150000
C        1.31960000      -0.70330000      -0.01500000
C        1.03610000      -2.09340000      -0.02040000
C       -0.34450000      -2.23300000      -0.00790000
C       -0.99540000      -0.96030000       0.00570000
C        0.01340000      -0.02130000       0.00140000
H       -0.88640000       1.82340000       0.02070000
H        1.00630000       3.15870000       0.01030000
H        3.26280000       2.08780000      -0.01740000
H        3.44380000      -0.40440000      -0.03360000
H        1.76800000      -2.88760000      -0.03200000
H       -0.87290000      -3.17890000      -0.00830000
H       -2.06110000      -0.78310000       0.01690000
