19
Properties=species:S:1:pos:R:3 gdb_62653=T pbc="F F F"
C       -0.12840000       1.57050000       0.00250000
C       -0.07890000       0.04460000      -0.00670000
C       -1.43680000      -0.55950000      -0.36070000
C        1.16310000      -0.60770000      -0.67040000
C        2.08500000      -0.32620000       0.56030000
O        2.56890000      -1.69540000       0.65910000
C        1.16880000      -1.83790000       0.28790000
C        0.68510000      -0.62200000       1.17480000
O        0.41080000      -0.57630000       2.52130000
H        0.84360000       2.01200000       0.24180000
H       -0.44170000       1.96010000      -0.97270000
H       -0.84740000       1.93130000       0.74670000
H       -1.76850000      -0.22830000      -1.35110000
H       -1.41340000      -1.65410000      -0.36940000
H       -2.20560000      -0.24540000       0.35610000
H        1.47070000      -0.60970000      -1.71380000
H        2.78080000       0.48910000       0.75010000
H        0.76490000      -2.84030000       0.15320000
H       -0.45070000      -0.97890000       2.67720000
