15
Properties=species:S:1:pos:R:3 gdb_98920=T pbc="F F F"
O        0.19220000       1.37050000       0.03800000
C       -0.00800000      -0.00390000      -0.13170000
C       -1.45720000      -0.35300000       0.18730000
O       -2.30620000       0.46780000       0.39290000
C       -1.72730000      -1.87370000       0.23680000
C       -3.12650000      -2.23100000       0.11630000
C       -4.28900000      -2.53540000       0.00890000
C       -5.68930000      -2.85310000      -0.11040000
O       -6.12220000      -3.95190000      -0.37220000
H        1.09720000       1.57720000      -0.21290000
H        0.18020000      -0.34170000      -1.16710000
H        0.64190000      -0.61950000       0.51590000
H       -1.12880000      -2.38550000      -0.52810000
H       -1.33680000      -2.23420000       1.20020000
H       -6.36300000      -1.98960000       0.06050000
