17
Properties=species:S:1:pos:R:3 gdb_81276=T pbc="F F F"
O       -0.00970000       1.37920000       0.08680000
C        0.03700000      -0.02240000       0.02780000
C       -1.37930000      -0.62250000      -0.15130000
C       -1.24620000      -0.26680000      -1.66220000
C        0.26390000      -0.61600000      -1.43550000
C        0.17270000      -2.07620000      -1.08140000
O        0.92940000      -2.99280000      -1.27960000
C       -1.09440000      -2.13040000      -0.18590000
O       -0.79540000      -2.68750000       1.07510000
H        0.89360000       1.71100000       0.09970000
H        0.65460000      -0.44180000       0.82930000
H       -2.21300000      -0.27810000       0.45820000
H       -1.80460000      -0.86380000      -2.38820000
H       -1.38530000       0.79620000      -1.84520000
H        1.07470000      -0.28900000      -2.08370000
H       -1.91250000      -2.67570000      -0.68220000
H       -0.20890000      -3.43760000       0.91180000
