14
Properties=species:S:1:pos:R:3 gdb_35007=T pbc="F F F"
C        0.00240000      -1.22170000       0.04520000
C        0.01630000      -0.01900000       0.02050000
C        0.01830000       1.39840000      -0.02040000
C       -0.62660000       2.29300000      -1.08800000
O        0.46220000       3.25510000      -0.98860000
C        1.12840000       2.44110000      -0.05120000
C        0.32690000       2.26870000       1.21630000
C       -0.59170000       3.26700000       1.68810000
N       -1.34480000       4.06350000       2.05690000
H       -0.00880000      -2.28360000       0.06780000
H       -0.63150000       1.82450000      -2.07520000
H       -1.59960000       2.73440000      -0.85570000
H        2.20840000       2.36210000      -0.09390000
H        0.83960000       1.70940000       1.99270000
