15
Properties=species:S:1:pos:R:3 gdb_24457=T pbc="F F F"
C        0.01990000       1.38720000       0.02000000
O        1.29990000       1.92150000      -0.00980000
C        2.07950000       1.63060000       1.16840000
C        1.86990000       0.18880000       1.49910000
C        0.89730000      -0.51230000       0.84950000
N        0.96380000      -1.80100000       1.30650000
C        1.99100000      -1.81820000       2.22660000
N        2.54990000      -0.64020000       2.36510000
O        0.00830000      -0.05660000      -0.05540000
H       -0.51450000       1.66930000       0.94090000
H       -0.50650000       1.73330000      -0.86940000
H        3.11490000       1.85430000       0.89630000
H        1.79200000       2.30800000       1.98750000
H        0.37740000      -2.56760000       1.02280000
H        2.27260000      -2.72150000       2.74500000
