15
Properties=species:S:1:pos:R:3 gdb_3343=T pbc="F F F"
C       -0.00200000       1.55270000      -0.07720000
C        1.30170000       0.78150000       0.02670000
O        2.01690000       0.90320000       1.22580000
C        1.78150000      -0.18430000       2.11190000
C        0.29450000      -0.31590000       2.39790000
O       -0.43450000      -0.62000000       1.21470000
C       -0.01040000       0.04740000       0.06150000
H       -0.25500000       2.15130000       0.79060000
H       -0.29340000       1.98000000      -1.03050000
H        1.94510000       0.69490000      -0.84650000
H        2.16580000      -1.12480000       1.68860000
H        2.33260000       0.03990000       3.02950000
H        0.09860000      -1.13690000       3.09430000
H       -0.07160000       0.61760000       2.85220000
H       -0.29430000      -0.52980000      -0.81240000
