17
Properties=species:S:1:pos:R:3 gdb_21030=T pbc="F F F"
C       -0.08540000       1.38310000      -0.04340000
N       -0.03360000      -0.05700000       0.02660000
N       -0.00730000      -0.80300000      -1.11330000
C        0.03380000      -2.06490000      -0.69740000
C        0.05570000      -3.18610000      -1.68830000
C        0.05750000      -2.14410000       0.71580000
C        0.01900000      -0.82940000       1.14200000
N       -0.05430000      -0.25660000       2.41800000
H        0.91300000       1.83620000       0.01160000
H       -0.53940000       1.65700000      -0.99600000
H       -0.69570000       1.76640000       0.77880000
H        0.95330000      -3.80490000      -1.57640000
H       -0.80950000      -3.84740000      -1.56560000
H        0.03990000      -2.78330000      -2.70330000
H        0.10210000      -3.02580000       1.33550000
H       -0.01970000      -0.96450000       3.13960000
H        0.67480000       0.42560000       2.59470000
