19
Properties=species:S:1:pos:R:3 gdb_6400=T pbc="F F F"
C       -0.16840000       1.56390000      -0.51180000
C       -0.17040000       0.19180000       0.16630000
C       -1.44290000      -0.61810000      -0.10370000
O       -1.65030000      -0.79390000      -1.51610000
C       -1.43970000      -1.96310000       0.63970000
C       -2.75800000      -2.74780000       0.64740000
N       -3.43670000      -2.75070000      -0.53270000
O       -3.13580000      -3.34680000       1.63670000
H        0.77110000       2.09250000      -0.32650000
H       -0.30120000       1.46600000      -1.59230000
H       -0.98440000       2.18920000      -0.13350000
H        0.69700000      -0.39680000      -0.16800000
H       -0.05660000       0.30670000       1.25070000
H       -2.31270000      -0.03140000       0.21670000
H       -0.87770000      -1.25290000      -1.86770000
H       -0.65920000      -2.60650000       0.20830000
H       -1.17620000      -1.81220000       1.68920000
H       -3.13780000      -2.15500000      -1.29120000
H       -4.33430000      -3.20600000      -0.55700000
