22
Properties=species:S:1:pos:R:3 gdb_59237=T pbc="F F F"
C       -0.16980000       0.57720000      -2.16830000
C        0.10090000      -0.49280000      -1.10770000
O        0.98140000       0.01030000      -0.09980000
C       -1.20740000      -1.08300000      -0.57280000
C       -1.27750000      -2.22600000       0.49660000
C       -0.02800000      -2.76890000       1.18330000
C       -2.20940000      -1.28770000       1.26970000
C       -1.56400000      -0.00230000       1.57520000
N       -2.13740000      -0.19020000       0.21780000
H        0.77310000       1.00020000      -2.52580000
H       -0.71070000       0.16200000      -3.02380000
H       -0.78430000       1.38270000      -1.74940000
H        0.65480000      -1.32160000      -1.56960000
H        0.70170000       0.90890000       0.10280000
H       -1.77450000      -1.39400000      -1.45720000
H       -1.84550000      -3.06520000       0.08360000
H        0.61690000      -1.97180000       1.55650000
H       -0.30530000      -3.41780000       2.02170000
H        0.56580000      -3.37020000       0.48590000
H       -3.15900000      -1.57850000       1.70820000
H       -2.13850000       0.71540000       2.15330000
H       -0.49170000       0.04670000       1.71590000
