17
Properties=species:S:1:pos:R:3 gdb_52800=T pbc="F F F"
C        0.11730000       1.49830000      -0.02040000
C        0.06560000       0.04470000      -0.03090000
C        0.00470000      -1.15780000      -0.02590000
C       -0.00950000      -2.59930000      -0.05500000
C        1.17540000      -3.25610000      -0.73400000
O       -0.45490000      -3.25150000       1.14830000
C       -1.31020000      -3.33170000       0.00150000
C       -2.58210000      -2.66720000       0.05840000
C       -3.66510000      -2.14670000       0.08050000
H        1.15000000       1.86100000      -0.06320000
H       -0.42080000       1.91970000      -0.87660000
H       -0.34040000       1.89950000       0.89030000
H        2.09970000      -2.98150000      -0.21760000
H        1.07320000      -4.34380000      -0.71090000
H        1.25440000      -2.92390000      -1.77310000
H       -1.33010000      -4.31660000      -0.46670000
H       -4.61650000      -1.67560000       0.10700000
