20
Properties=species:S:1:pos:R:3 gdb_73103=T pbc="F F F"
C       -0.34140000       1.45580000       0.20390000
C        0.07550000       0.01230000      -0.03650000
C       -1.07550000      -1.02690000       0.18510000
C       -0.43770000      -1.44700000       1.53740000
C        0.85140000      -0.67350000       1.14900000
N        1.85690000      -1.45280000       0.46750000
C        1.94920000      -1.28970000      -0.89190000
O        2.70940000      -1.88360000      -1.62370000
C        0.93240000      -0.20980000      -1.28540000
H        0.53090000       2.11730000       0.24960000
H       -0.99120000       1.81250000      -0.60310000
H       -0.89350000       1.56380000       1.14430000
H       -2.08460000      -0.61050000       0.23230000
H       -1.06870000      -1.82750000      -0.55890000
H       -0.93690000      -0.99820000       2.40030000
H       -0.31740000      -2.51700000       1.72070000
H        1.28680000      -0.02760000       1.91970000
H        2.44930000      -2.12530000       0.93000000
H        0.36120000      -0.53820000      -2.15770000
H        1.48600000       0.68940000      -1.58020000
