19
Properties=species:S:1:pos:R:3 gdb_79345=T pbc="F F F"
O       -0.08260000       1.42430000       0.04180000
C       -0.00220000       0.01050000      -0.01380000
C       -1.38050000      -0.59000000      -0.22320000
C       -1.60250000      -0.66700000      -1.73250000
C       -0.34990000      -0.10380000      -2.39380000
C        0.65180000      -0.56170000      -1.30550000
C        0.32680000      -2.06530000      -1.15860000
C       -1.17750000      -1.89640000      -0.94700000
O       -2.01770000      -2.96770000      -0.67950000
H        0.80800000       1.76680000       0.16950000
H        0.48790000      -0.38520000       0.88860000
H       -2.19780000      -0.44910000       0.47010000
H       -2.59800000      -0.58590000      -2.14840000
H       -0.13850000      -0.55210000      -3.37060000
H       -0.37610000       0.98390000      -2.49560000
H        1.69950000      -0.30200000      -1.46430000
H        0.57200000      -2.64440000      -2.05720000
H        0.81970000      -2.53170000      -0.29910000
H       -2.13110000      -3.46910000      -1.49460000
