23
Properties=species:S:1:pos:R:3 gdb_102692=T pbc="F F F"
C       -0.53970000       1.75610000      -0.57590000
C       -0.24300000       0.26080000      -0.44540000
C       -1.49340000      -0.60720000      -0.27140000
C       -1.15290000      -2.09840000      -0.18530000
C       -2.37690000      -3.00680000      -0.05210000
O       -2.17030000      -0.21400000       0.93280000
C       -3.47690000       0.27670000       0.77900000
C       -4.01190000       0.63050000       2.15710000
O       -5.11020000       1.07980000       2.35050000
H        0.38360000       2.33140000      -0.69220000
H       -1.17110000       1.96490000      -1.44720000
H       -1.05480000       2.12880000       0.31390000
H        0.29990000      -0.09250000      -1.33070000
H        0.41460000       0.08750000       0.41560000
H       -2.16600000      -0.44220000      -1.12750000
H       -0.57840000      -2.37180000      -1.07890000
H       -0.48640000      -2.24670000       0.67340000
H       -3.04790000      -2.90370000      -0.91270000
H       -2.08120000      -4.05810000       0.01160000
H       -2.94360000      -2.76440000       0.85130000
H       -3.51810000       1.18060000       0.14990000
H       -4.15560000      -0.46330000       0.32460000
H       -3.28910000       0.43450000       2.97960000
