18
Properties=species:S:1:pos:R:3 gdb_70213=T pbc="F F F"
C        0.06460000       1.56240000      -0.05650000
C        0.02120000       0.05550000       0.04370000
C       -1.28200000      -0.56610000      -0.42650000
O       -1.28560000      -1.99860000      -0.42860000
C       -0.77630000      -2.70500000       0.61670000
O       -0.95190000      -3.89000000       0.66110000
C        0.02460000      -1.93330000       1.65560000
C        0.70640000      -0.69000000       1.12410000
N        1.27730000      -0.65470000      -0.23730000
H        1.02500000       1.93430000       0.30690000
H       -0.05120000       1.88960000      -1.09590000
H       -0.73400000       2.02360000       0.53530000
H       -2.11160000      -0.20160000       0.19510000
H       -1.49730000      -0.28620000      -1.46230000
H       -0.66230000      -1.65270000       2.46640000
H        0.73540000      -2.64280000       2.08770000
H        1.29690000      -0.14510000       1.85730000
H        1.09960000      -1.52840000      -0.72950000
