19
Properties=species:S:1:pos:R:3 gdb_90142=T pbc="F F F"
C       -0.08140000       1.54070000      -0.00300000
C        0.11540000       0.03990000       0.02170000
O        1.19490000      -0.41300000      -0.86170000
C        1.72830000      -1.19320000       0.22010000
C        2.22040000      -0.33350000       1.34130000
C        0.74280000      -0.66020000       1.24320000
C        0.16210000      -1.85860000       1.98320000
C        0.86210000      -3.03980000       1.30910000
C        1.68900000      -2.67230000       0.31920000
H        0.81840000       2.06710000       0.32620000
H       -0.32260000       1.87590000      -1.01670000
H       -0.90940000       1.82020000       0.65750000
H       -0.81320000      -0.47330000      -0.26410000
H        2.75900000      -0.83810000       2.13590000
H        2.56630000       0.67000000       1.11460000
H        0.35660000      -1.83510000       3.06280000
H       -0.92850000      -1.92260000       1.87200000
H        0.72310000      -4.06290000       1.64760000
H        2.27640000      -3.34650000      -0.29310000
