16
Properties=species:S:1:pos:R:3 gdb_42954=T pbc="F F F"
O       -0.02530000       0.05580000       0.15630000
C       -0.05620000       1.25330000       0.04480000
C       -1.27560000       2.11470000      -0.11690000
C       -1.38380000       3.23600000       0.86560000
N       -0.86980000       3.49470000      -0.47590000
C        0.61550000       3.52700000      -0.60230000
C        1.39590000       4.12800000       0.57490000
O        1.61880000       2.80680000       1.13660000
C        1.16690000       2.18530000      -0.09770000
H       -2.15440000       1.68690000      -0.58690000
H       -2.36560000       3.65700000       1.06110000
H       -0.70730000       3.22160000       1.71460000
H        0.86730000       3.86650000      -1.60700000
H        2.34310000       4.59660000       0.28290000
H        0.85240000       4.79040000       1.25560000
H        1.98240000       1.69250000      -0.63610000
