20
Properties=species:S:1:pos:R:3 gdb_63088=T pbc="F F F"
C       -0.14620000       1.52080000       0.07290000
C       -0.03980000       0.01530000      -0.05900000
C       -1.21700000      -0.73820000       0.52640000
C        0.73130000      -0.62660000      -1.16770000
C        1.67280000       0.17250000      -2.08020000
C        2.91060000       0.42650000      -1.19460000
C        2.41440000       0.19740000       0.24060000
O        2.89520000       0.63900000       1.24940000
N        1.27080000      -0.65030000       0.20350000
H        0.65520000       2.05890000      -0.43710000
H       -1.09960000       1.86180000      -0.34380000
H       -0.11650000       1.81080000       1.12820000
H       -2.14240000      -0.46770000       0.00580000
H       -1.06950000      -1.81710000       0.44230000
H       -1.34040000      -0.49450000       1.58680000
H        0.37380000      -1.58410000      -1.53930000
H        1.91560000      -0.40820000      -2.97210000
H        1.21830000       1.10700000      -2.42270000
H        3.70360000      -0.30100000      -1.40260000
H        3.35200000       1.42080000      -1.28320000
