16
Properties=species:S:1:pos:R:3 gdb_48590=T pbc="F F F"
O        0.07140000      -0.14370000      -0.00020000
C        0.09300000       1.04770000      -0.18210000
C        1.33440000       1.87170000      -0.10960000
C        1.72970000       2.62630000       1.22420000
C        3.11810000       2.48800000       0.52350000
N        2.66760000       1.18930000      -0.09020000
C        2.91090000       3.46230000      -0.66730000
O        2.74510000       2.83890000      -1.94290000
C        1.59400000       3.02390000      -1.12830000
H       -0.84020000       1.62140000      -0.38500000
H        1.31570000       3.62470000       1.40730000
H        1.62370000       1.99080000       2.10760000
H        4.06400000       2.50650000       1.06260000
H        2.61870000       0.48770000       0.64860000
H        3.27460000       4.48350000      -0.65510000
H        0.79510000       3.65120000      -1.50860000
