12
Properties=species:S:1:pos:R:3 gdb_131409=T pbc="F F F"
O       -0.06540000       1.28980000      -0.25690000
C        0.07500000      -0.02200000      -0.07290000
N        1.18450000      -0.51610000       0.31480000
O        1.21450000      -1.92240000       0.47560000
C        0.11770000      -2.70470000       0.23100000
N        0.16190000      -3.95640000       0.38070000
C       -1.13880000      -2.03380000      -0.22030000
N       -2.19870000      -2.65440000      -0.47200000
O       -1.07660000      -0.64970000      -0.35210000
H        0.78410000       1.70230000      -0.04570000
H        1.09260000      -4.24360000       0.69210000
H       -2.93770000      -2.01210000      -0.76440000
