16
Properties=species:S:1:pos:R:3 gdb_69876=T pbc="F F F"
C       -0.14960000       1.53140000       0.13550000
C        0.09230000       0.06260000       0.06180000
O       -0.79150000      -0.85080000       0.69900000
C        0.60750000      -0.94760000       0.98700000
C        1.31020000      -1.71360000      -0.18360000
N        0.28520000      -2.09900000      -1.16460000
C        0.79680000      -0.69590000      -1.15260000
C        1.42820000      -0.08230000      -2.26010000
C        1.94720000       0.47250000      -3.19530000
H        0.74120000       2.08310000      -0.17930000
H       -0.97420000       1.81880000      -0.52590000
H       -0.40780000       1.82220000       1.15700000
H        0.92530000      -0.89150000       2.02090000
H        2.28970000      -2.17130000      -0.14820000
H        0.76950000      -2.56780000      -1.93180000
H        2.40840000       0.95530000      -4.02080000
