23
Properties=species:S:1:pos:R:3 gdb_104763=T pbc="F F F"
C       -0.28530000       1.56870000      -0.92670000
C       -0.07760000       0.25450000      -0.16150000
C       -1.37930000      -0.47300000       0.16470000
C       -2.38040000       0.28880000       1.02970000
C       -1.86420000       0.63960000       2.42990000
C       -1.93820000      -1.40650000      -0.85910000
C       -1.35690000      -1.99010000       0.42620000
C       -0.12470000      -2.80420000       0.36910000
O        0.12790000      -3.70430000       1.13420000
H        0.67840000       2.00630000      -1.20380000
H       -0.85610000       1.40340000      -1.84670000
H       -0.82290000       2.31150000      -0.33000000
H        0.56360000      -0.39730000      -0.76280000
H        0.47860000       0.45130000       0.76280000
H       -2.68300000       1.20460000       0.50720000
H       -3.29020000      -0.31600000       1.12180000
H       -1.55090000      -0.25940000       2.97080000
H       -1.00730000       1.31920000       2.38980000
H       -2.64490000       1.13140000       3.01790000
H       -3.01250000      -1.48130000      -0.98910000
H       -1.36610000      -1.56760000      -1.76860000
H       -2.05920000      -2.34770000       1.17270000
H        0.57750000      -2.55030000      -0.45760000
