20
Properties=species:S:1:pos:R:3 gdb_61829=T pbc="F F F"
C       -0.38690000       1.52610000      -0.41740000
C        0.06300000       0.14400000       0.05900000
N        0.95800000       0.27160000       1.20770000
C        1.95780000      -0.60630000       1.48090000
O        2.23950000      -1.57890000       0.81180000
C       -1.13650000      -0.71950000       0.42370000
O       -2.02310000      -1.07700000      -0.63540000
C       -1.30780000      -2.12920000       0.03860000
C       -0.32270000      -2.93540000      -0.76560000
H        0.47020000       2.13480000      -0.71830000
H       -1.06170000       1.41760000      -1.26940000
H       -0.93020000       2.05940000       0.37260000
H        0.63690000      -0.34740000      -0.72900000
H        0.80570000       1.03250000       1.85150000
H        2.51290000      -0.32440000       2.39800000
H       -1.64280000      -0.38090000       1.33330000
H       -1.94760000      -2.72260000       0.69540000
H        0.17610000      -2.32190000      -1.51770000
H        0.44500000      -3.35890000      -0.11280000
H       -0.83980000      -3.75060000      -1.28180000
