15
Properties=species:S:1:pos:R:3 gdb_34171=T pbc="F F F"
N       -0.03190000      -1.09180000       0.01340000
C       -0.03900000       0.06480000       0.01630000
C       -0.06570000       1.50360000      -0.00840000
N       -0.97470000       2.24150000       0.93330000
C       -0.84100000       3.35460000      -0.06410000
C        0.65890000       3.72570000      -0.06760000
C        0.95360000       2.98820000      -1.35630000
C        1.25540000       2.32060000      -0.03630000
C       -0.48080000       2.39280000      -1.25300000
H       -1.90920000       1.83930000       0.83620000
H       -1.60450000       4.12940000      -0.07680000
H        1.15460000       4.57750000       0.37540000
H        1.59500000       3.22900000      -2.19030000
H        2.19900000       2.07500000       0.42800000
H       -1.15110000       2.06620000      -2.04390000
