20
Properties=species:S:1:pos:R:3 gdb_89783=T pbc="F F F"
C       -0.67570000       1.27360000       0.19570000
C        0.01820000      -0.05280000      -0.07050000
C        0.97120000      -0.14510000      -1.30610000
C        2.10620000      -0.48290000      -0.32870000
C        3.17640000      -1.52410000      -0.45890000
C        3.54020000      -0.05180000      -0.35660000
N        1.18500000      -0.33430000       0.78390000
C        1.25060000      -0.56680000       2.11050000
O        0.30520000      -0.49070000       2.87370000
H        0.03550000       2.10420000       0.14100000
H       -1.46360000       1.44190000      -0.54610000
H       -1.12560000       1.26690000       1.19120000
H       -0.70820000      -0.87220000      -0.02460000
H        0.72710000      -0.93040000      -2.02350000
H        1.09810000       0.80280000      -1.83400000
H        3.38060000      -2.15610000       0.39910000
H        3.28910000      -2.01980000      -1.41790000
H        3.90320000       0.45560000      -1.24470000
H        3.98260000       0.29530000       0.57130000
H        2.27620000      -0.83040000       2.44270000
