21
Properties=species:S:1:pos:R:3 gdb_37847=T pbc="F F F"
C       -0.03760000       1.56080000       0.00230000
C        1.50700000       1.43490000      -0.00570000
C        2.03190000       0.87930000       1.37740000
C        0.85280000       0.61810000       2.34870000
C        0.50200000      -0.54460000       1.38590000
C       -0.02290000       0.01110000       0.00290000
C        1.30250000       0.11580000      -0.83720000
C        2.28180000      -0.93350000      -0.34850000
C        2.04780000      -0.67320000       1.12670000
H       -0.53850000       2.10380000       0.80610000
H       -0.40060000       1.94500000      -0.95560000
H        2.11550000       2.24880000      -0.40380000
H        2.92770000       1.38900000       1.73640000
H        1.21670000       0.23290000       3.30590000
H        0.12200000       1.40450000       2.54650000
H       -0.06840000      -1.39960000       1.75310000
H       -0.88070000      -0.53970000      -0.38710000
H        1.16940000       0.25240000      -1.91100000
H        2.01120000      -1.95090000      -0.65460000
H        3.31410000      -0.73830000      -0.66190000
H        2.60030000      -1.26250000       1.85950000
