18
Properties=species:S:1:pos:R:3 gdb_16207=T pbc="F F F"
O        0.07850000       0.02450000      -0.10330000
C        0.02170000       1.22880000      -0.02430000
C       -1.24730000       2.07430000       0.11820000
C       -0.74430000       3.43890000       0.61880000
C        0.65700000       3.58730000      -0.02310000
C        1.19640000       2.16510000      -0.03760000
C        2.41710000       1.72230000       0.76170000
C        2.46370000       1.72210000      -0.73100000
H       -1.69380000       2.16330000      -0.88180000
H       -1.98330000       1.58180000       0.75710000
H       -1.41280000       4.26430000       0.36320000
H       -0.64940000       3.41930000       1.71030000
H        0.55890000       3.96720000      -1.04820000
H        1.29670000       4.28680000       0.52200000
H        2.95480000       2.49500000       1.30100000
H        2.34270000       0.76470000       1.26510000
H        2.41970000       0.76220000      -1.23480000
H        3.04490000       2.48870000      -1.23270000
