16
Properties=species:S:1:pos:R:3 gdb_36262=T pbc="F F F"
N       -0.00860000      -1.23080000      -0.01910000
C       -0.02880000      -0.07790000      -0.08530000
C       -0.05990000       1.38670000      -0.14090000
N        1.29490000       1.93540000      -0.04010000
C        1.87690000       1.96780000       1.33900000
C        2.72430000       3.23230000       0.99210000
N        2.28470000       4.04950000       2.16630000
C        1.07380000       3.24030000       1.82150000
C        1.35320000       3.39480000       0.28360000
H       -0.48740000       1.68930000      -1.10400000
H       -0.75080000       1.73930000       0.64450000
H        2.16270000       1.06920000       1.88830000
H        3.71560000       3.27780000       0.54410000
H        2.71370000       3.69450000       3.02480000
H        0.13990000       3.31980000       2.37830000
H        1.02920000       4.18160000      -0.39720000
