23
Properties=species:S:1:pos:R:3 gdb_122625=T pbc="F F F"
C       -0.24650000       1.53190000      -0.18100000
C        0.01710000       0.03490000      -0.07950000
C        1.35060000      -0.47960000      -0.66570000
O        1.79940000      -0.94730000       0.62060000
C        0.55650000      -0.55750000       1.25650000
C        0.78070000       0.33950000       2.46290000
C        1.52840000      -0.38930000       3.58480000
C        1.80820000       0.50480000       4.78490000
O        2.48060000      -0.27240000       5.76450000
H        0.61800000       2.12060000       0.14070000
H       -0.46620000       1.80930000      -1.21770000
H       -1.10510000       1.83210000       0.42890000
H       -0.85220000      -0.51520000      -0.44950000
H        1.26830000      -1.29620000      -1.39440000
H        2.01540000       0.29260000      -1.07580000
H       -0.00020000      -1.45240000       1.57380000
H        1.34780000       1.22660000       2.15690000
H       -0.19560000       0.69150000       2.82470000
H        0.94800000      -1.25590000       3.92470000
H        2.47770000      -0.77560000       3.19940000
H        2.41970000       1.36700000       4.47100000
H        0.85980000       0.90760000       5.17910000
H        2.67610000       0.29470000       6.51590000
