12
Properties=species:S:1:pos:R:3 gdb_132474=T pbc="F F F"
O       -0.07680000       1.29090000       0.15450000
C        0.01740000      -0.03870000       0.03730000
N        1.15550000      -0.61870000      -0.07430000
C        1.18490000      -2.00220000      -0.19240000
C        0.04150000      -2.69430000      -0.18760000
F       -0.06750000      -3.99870000      -0.29150000
O       -1.16920000      -2.12290000      -0.07270000
C       -1.28320000      -0.74030000       0.05000000
N       -2.40130000      -0.16750000       0.15990000
H        0.83050000       1.62940000       0.13300000
H        2.14320000      -2.49150000      -0.28650000
H       -3.16710000      -0.84220000       0.14530000
