20
Properties=species:S:1:pos:R:3 gdb_97109=T pbc="F F F"
C       -0.28690000       1.60910000       0.01750000
N       -0.14990000       0.17620000       0.23720000
C       -1.11180000      -0.58090000      -0.01790000
O       -2.38270000      -0.30400000      -0.50680000
C       -2.73790000      -1.72030000      -0.46540000
C       -1.33610000      -2.06870000       0.07860000
C       -0.42440000      -3.10510000      -0.63100000
C       -0.60560000      -4.06320000       0.57770000
C       -1.15210000      -2.86380000       1.39880000
H        0.48390000       1.93930000      -0.68790000
H       -1.26770000       1.91240000      -0.36700000
H       -0.10140000       2.13580000       0.96030000
H       -3.57780000      -1.89210000       0.21420000
H       -2.97540000      -2.09230000      -1.46640000
H       -0.75080000      -3.45400000      -1.61420000
H        0.59630000      -2.72300000      -0.71260000
H       -1.37170000      -4.82110000       0.39310000
H        0.28860000      -4.56130000       0.95740000
H       -0.38370000      -2.39790000       2.02090000
H       -2.04800000      -3.02380000       2.00430000
