10
Properties=species:S:1:pos:R:3 gdb_23825=T pbc="F F F"
F        0.05820000       0.07230000       0.00220000
C       -0.05200000       1.38550000       0.01140000
N       -1.20060000       1.91580000       0.02950000
C       -1.25770000       3.30200000       0.03810000
N       -2.34410000       3.93590000       0.05610000
O       -0.03290000       4.02440000       0.02620000
N        1.19010000       3.40890000       0.00650000
C        1.19350000       2.12460000      -0.00090000
H       -2.17880000       4.94200000       0.05980000
H        2.15880000       1.63310000      -0.01640000
