23
Properties=species:S:1:pos:R:3 gdb_109937=T pbc="F F F"
C       -0.37790000       1.44660000      -0.00230000
C        0.00430000      -0.03000000       0.00120000
C        1.23760000      -0.38140000      -0.89140000
C        2.07150000      -0.56170000       0.38350000
C        3.31600000      -1.37620000       0.56280000
C        3.37590000       0.13060000       0.67510000
C        0.80320000      -0.53860000       1.25320000
C        0.79970000       0.28360000       2.52640000
O       -0.50740000       0.21190000       3.08560000
H        0.49840000       2.09170000       0.12800000
H       -0.84350000       1.71950000      -0.95560000
H       -1.08490000       1.66810000       0.80280000
H       -0.88370000      -0.63150000      -0.20930000
H        1.11180000      -1.31020000      -1.45680000
H        1.56460000       0.40310000      -1.58170000
H        3.42320000      -1.95800000       1.47360000
H        3.75070000      -1.84320000      -0.31570000
H        3.84480000       0.68720000      -0.13070000
H        3.53490000       0.56070000       1.65890000
H        0.48730000      -1.55610000       1.51070000
H        1.55120000      -0.12000000       3.22600000
H        1.08290000       1.32480000       2.31270000
H       -0.52510000       0.75650000       3.87790000
