19
Properties=species:S:1:pos:R:3 gdb_124740=T pbc="F F F"
C        0.33210000       1.26180000      -0.40390000
C        0.03230000      -0.09810000       0.22580000
O        0.32790000      -0.09700000       1.62590000
C       -1.38350000      -0.57280000      -0.00030000
C       -2.25760000      -0.56800000      -1.08110000
C       -2.07050000      -0.02100000      -2.46590000
C       -3.40500000      -1.23240000      -0.58890000
N       -3.27240000      -1.62110000       0.67650000
N       -2.03720000      -1.21030000       1.00450000
H        1.35810000       1.55600000      -0.16730000
H        0.22050000       1.23170000      -1.49030000
H       -0.35330000       2.02600000      -0.01890000
H        0.72930000      -0.83810000      -0.18930000
H       -0.10190000       0.67670000       2.00930000
H       -1.14390000      -0.37500000      -2.93190000
H       -2.89600000      -0.33770000      -3.10980000
H       -2.04720000       1.07470000      -2.48810000
H       -4.32390000      -1.43700000      -1.12120000
H       -1.65460000      -1.39340000       1.91730000
