14
Properties=species:S:1:pos:R:3 gdb_15511=T pbc="F F F"
O       -0.36380000       0.46510000      -0.59830000
C        0.39150000       0.81890000       0.26770000
C        1.36670000       1.97710000       0.11680000
C        1.22990000       2.80050000      -1.16160000
C        1.47900000       4.23650000      -0.66980000
O        1.16790000       4.24430000       0.73730000
C        1.15600000       2.99390000       1.25070000
O        0.98870000       2.75940000       2.41210000
H        0.42650000       0.32700000       1.26020000
H        2.37450000       1.56330000       0.26140000
H        1.93000000       2.50860000      -1.94560000
H        0.21800000       2.68140000      -1.55660000
H        2.52450000       4.54150000      -0.78780000
H        0.84130000       4.98090000      -1.14990000
