13
Properties=species:S:1:pos:R:3 gdb_2142=T pbc="F F F"
O        0.31020000       1.40540000      -0.11570000
C        0.11310000       0.02530000       0.07760000
C        0.70890000      -0.53220000       1.34400000
C       -0.14010000      -1.33990000       1.98420000
C       -1.48910000      -1.42970000       1.30960000
C       -1.37660000      -0.32070000       0.26290000
O       -2.26600000       0.29230000      -0.26830000
H       -0.50480000       1.73300000      -0.52190000
H        0.48860000      -0.54200000      -0.79670000
H        1.72590000      -0.31320000       1.64500000
H        0.08790000      -1.88720000       2.89150000
H       -1.65640000      -2.39690000       0.81450000
H       -2.34650000      -1.26420000       1.97080000
