25
Properties=species:S:1:pos:R:3 gdb_104851=T pbc="F F F"
C       -0.15190000       1.38160000      -0.63350000
C       -0.08850000      -0.07190000      -0.15330000
C       -1.46460000      -0.65750000       0.19330000
C       -2.33430000      -0.97620000      -1.05000000
C       -1.92290000      -2.46540000      -0.93080000
C       -1.46190000      -2.19600000       0.52800000
C       -0.22110000      -2.90770000       1.05060000
O       -2.18150000       0.16800000       1.10030000
C       -1.65010000       0.25440000       2.40410000
H        0.84730000       1.75600000      -0.87620000
H       -0.77130000       1.47850000      -1.53080000
H       -0.58520000       2.03010000       0.13210000
H        0.36920000      -0.69850000      -0.92810000
H        0.57600000      -0.14560000       0.71610000
H       -3.38830000      -0.81520000      -0.81380000
H       -2.09360000      -0.45400000      -1.97890000
H       -2.70280000      -3.21580000      -1.07770000
H       -1.07970000      -2.71570000      -1.58230000
H       -2.30570000      -2.37220000       1.20490000
H        0.64110000      -2.75470000       0.39340000
H        0.05900000      -2.56410000       2.05240000
H       -0.39740000      -3.98780000       1.11110000
H       -1.55760000      -0.73320000       2.87880000
H       -0.66620000       0.74410000       2.43220000
H       -2.34960000       0.85530000       2.99120000
