22
Properties=species:S:1:pos:R:3 gdb_22162=T pbc="F F F"
C       -0.09670000       1.52200000      -0.03790000
C       -0.02180000       0.01770000      -0.03750000
C        0.04840000      -0.73360000       1.26600000
C        1.36040000      -0.49110000       2.03520000
C        1.40070000      -1.23270000       3.37410000
C        2.70030000      -1.01120000       4.13670000
O        2.61990000      -1.73180000       5.35730000
N       -0.00660000      -0.69250000      -1.10100000
O       -0.05290000       0.10650000      -2.25890000
H        0.83300000       1.95710000      -0.42140000
H       -0.89450000       1.85970000      -0.70550000
H       -0.27460000       1.91300000       0.96600000
H       -0.79730000      -0.43070000       1.89950000
H       -0.06560000      -1.80120000       1.05650000
H        2.20120000      -0.80940000       1.40550000
H        1.49550000       0.58480000       2.20820000
H        0.56680000      -0.91070000       4.01020000
H        1.27120000      -2.30990000       3.21340000
H        3.55230000      -1.35350000       3.52650000
H        2.84530000       0.06680000       4.31910000
H        3.44280000      -1.60320000       5.83760000
H       -0.06630000      -0.55570000      -2.95750000
