15
Properties=species:S:1:pos:R:3 gdb_5759=T pbc="F F F"
C       -0.12910000       1.46180000      -0.05780000
C        1.26980000       0.95620000       0.14650000
C        0.12210000      -0.03110000       0.04460000
C       -0.32360000      -0.79150000       1.21330000
C       -0.80670000      -2.04570000       1.40740000
N       -1.07400000      -2.24110000       2.76000000
C       -0.74790000      -1.12050000       3.30770000
O       -0.28180000      -0.18300000       2.44320000
H       -0.62230000       1.93600000       0.78270000
H       -0.40390000       1.85690000      -1.02920000
H        1.96630000       1.00020000      -0.68310000
H        1.71730000       1.09030000       1.12430000
H        0.05050000      -0.60060000      -0.87550000
H       -0.98060000      -2.81880000       0.67640000
H       -0.79640000      -0.83720000       4.34720000
