17
Properties=species:S:1:pos:R:3 gdb_34239=T pbc="F F F"
N        0.03070000      -1.15590000       0.06600000
C       -0.00660000      -0.00040000       0.03810000
C       -0.09660000       1.43550000      -0.00640000
C       -1.12230000       2.25810000       0.78180000
C       -0.65020000       3.39420000      -0.16060000
C        0.80310000       3.53890000       0.33270000
N        1.29520000       2.17340000      -0.03850000
C        1.11490000       2.25470000      -1.54420000
C       -0.38370000       2.29500000      -1.28370000
H       -2.12890000       1.90030000       0.55200000
H       -0.99690000       2.38040000       1.86050000
H       -1.25650000       4.27850000      -0.34420000
H        1.39880000       4.29700000      -0.17990000
H        0.87430000       3.70440000       1.41030000
H        1.62130000       3.09930000      -2.01880000
H        1.43490000       1.31820000      -2.00760000
H       -1.17540000       2.06940000      -1.99710000
