23
Properties=species:S:1:pos:R:3 gdb_105110=T pbc="F F F"
O       -0.13690000       1.57430000      -0.06950000
C       -0.02270000       0.15920000      -0.14490000
C       -1.40080000      -0.46790000      -0.01970000
C       -2.40280000       0.21670000       0.88180000
C       -2.56890000       0.28250000      -0.61800000
C       -1.45210000      -1.97960000      -0.08030000
C       -0.84210000      -2.77730000      -1.27410000
C       -0.47970000      -3.90570000      -0.27170000
C       -0.60490000      -2.87160000       0.87900000
H        0.74410000       1.94830000      -0.15210000
H        0.43390000      -0.13820000      -1.10240000
H        0.62960000      -0.21630000       0.65970000
H       -3.08090000      -0.41010000       1.45180000
H       -2.08810000       1.12440000       1.38180000
H       -2.36210000       1.23300000      -1.09420000
H       -3.36100000      -0.29900000      -1.07830000
H       -2.50210000      -2.27780000       0.02230000
H       -1.50100000      -3.01840000      -2.11200000
H        0.05780000      -2.29820000      -1.67070000
H       -1.26530000      -4.66510000      -0.21840000
H        0.48080000      -4.41020000      -0.39960000
H        0.36420000      -2.41990000       1.11050000
H       -1.06820000      -3.19040000       1.81600000
