17
Properties=species:S:1:pos:R:3 gdb_31149=T pbc="F F F"
C        0.12980000       1.39130000      -0.54550000
N       -0.13290000       0.25670000       0.35070000
C       -1.37330000      -0.40170000       0.13730000
C       -2.36170000      -0.42830000       1.09630000
O       -2.35290000       0.10600000       2.33460000
N       -3.43440000      -1.11060000       0.62950000
C       -3.16280000      -1.55700000      -0.67030000
C       -1.89800000      -1.12610000      -0.98310000
O       -1.17700000      -1.31040000      -2.12980000
H        1.10280000       1.82800000      -0.29740000
H        0.12630000       1.11900000      -1.61020000
H       -0.63720000       2.15550000      -0.38840000
H        0.63920000      -0.39950000       0.28980000
H       -1.47360000       0.50700000       2.41600000
H       -4.27890000      -1.27540000       1.14620000
H       -3.88750000      -2.12460000      -1.22850000
H       -1.71030000      -1.81130000      -2.75450000
