19
Properties=species:S:1:pos:R:3 gdb_2026=T pbc="F F F"
C       -0.82010000       1.20090000      -0.13590000
C        0.15540000       0.04740000       0.03660000
C        1.44800000       0.02710000      -0.83740000
C        2.23140000      -0.38860000       0.41430000
C        3.03970000      -1.64600000       0.55560000
C        3.70050000      -0.28960000       0.68380000
C        1.05460000       0.01560000       1.31150000
H       -0.30860000       2.16540000      -0.03700000
H       -1.29650000       1.17680000      -1.12270000
H       -1.61510000       1.16740000       0.61780000
H       -0.37320000      -0.90620000      -0.06530000
H        1.46510000      -0.65430000      -1.69310000
H        1.71830000       1.03100000      -1.18560000
H        2.91430000      -2.23950000       1.45620000
H        3.24270000      -2.22980000      -0.33720000
H        4.34910000       0.04060000      -0.12200000
H        4.02090000       0.03100000       1.67050000
H        1.18200000       1.01530000       1.74330000
H        0.76870000      -0.67470000       2.11070000
