19
Properties=species:S:1:pos:R:3 gdb_48240=T pbc="F F F"
N       -1.99400000       1.59910000      -0.10010000
C       -2.19320000       0.34380000      -0.11090000
N       -1.16450000      -0.59410000      -0.05970000
C        0.16380000      -0.18000000       0.00770000
O        1.10290000      -0.94040000       0.05450000
C       -1.45900000      -2.02210000      -0.07570000
C       -2.42610000      -2.64730000       0.96480000
C       -2.88220000      -3.63170000      -0.14880000
C       -2.31640000      -2.64560000      -1.20920000
H       -2.87950000       2.09760000      -0.14490000
H       -3.17750000      -0.13060000      -0.16130000
H        0.24980000       0.91430000       0.01290000
H       -0.48590000      -2.51000000      -0.02700000
H       -1.98350000      -3.05510000       1.87590000
H       -3.23220000      -1.96220000       1.24430000
H       -2.31700000      -4.56650000      -0.12100000
H       -3.94600000      -3.86850000      -0.20260000
H       -3.09030000      -1.96000000      -1.56730000
H       -1.78440000      -3.05190000      -2.07190000
