17
Properties=species:S:1:pos:R:3 gdb_89708=T pbc="F F F"
O       -0.10390000       1.39100000      -0.13900000
C        0.00370000      -0.00820000      -0.04600000
C        0.52750000      -0.51460000       1.34460000
C       -0.77520000      -1.23400000       1.78090000
C       -1.11460000      -2.10510000       0.55060000
C       -1.38120000      -0.68990000       0.00710000
O       -1.80860000      -0.27860000       1.35470000
C       -0.90210000      -1.68150000       3.20360000
O       -0.54460000      -2.76220000       3.59670000
H       -0.74800000       1.65030000       0.53340000
H        0.62140000      -0.33500000      -0.88540000
H        1.38000000      -1.19430000       1.28720000
H        0.78170000       0.32780000       1.99170000
H       -0.32330000      -2.70980000       0.10400000
H       -2.03050000      -2.67900000       0.69070000
H       -2.10240000      -0.45680000      -0.77490000
H       -1.34560000      -0.91780000       3.88100000
