14
Properties=species:S:1:pos:R:3 gdb_7942=T pbc="F F F"
N        0.11760000       1.39950000       0.35850000
C       -0.06240000       0.02260000      -0.06100000
C       -1.52040000      -0.41430000      -0.24050000
C       -1.45180000      -1.43340000      -1.35180000
N       -2.31220000      -2.29940000      -1.64190000
O       -0.25840000      -1.26250000      -2.05270000
C        0.56070000      -0.35120000      -1.41520000
O        1.57690000       0.03970000      -1.90020000
H        1.11170000       1.60690000       0.40430000
H       -0.26450000       2.02720000      -0.34480000
H        0.42560000      -0.62350000       0.68120000
H       -1.98910000      -0.82880000       0.65100000
H       -2.13050000       0.43510000      -0.57140000
H       -2.02080000      -2.85470000      -2.44800000
