17
Properties=species:S:1:pos:R:3 gdb_49227=T pbc="F F F"
O       -0.08870000      -0.00780000       0.00650000
C       -0.00640000       1.20070000       0.00070000
C        1.25800000       1.93830000       0.04220000
C        1.35360000       3.27680000       0.00750000
C        2.77880000       3.75060000       0.04040000
C        3.56560000       2.45720000       0.29900000
C        5.02280000       2.36230000       0.19020000
O        4.38760000       2.44270000       1.46980000
C        2.61180000       1.27230000       0.10820000
H       -0.91560000       1.84170000      -0.03960000
H        0.50570000       3.95180000      -0.05170000
H        3.05820000       4.22600000      -0.91010000
H        2.97370000       4.48490000       0.83030000
H        5.48620000       1.40420000      -0.04370000
H        5.60360000       3.23760000      -0.10060000
H        2.69770000       0.56450000       0.93800000
H        2.82070000       0.71140000      -0.81080000
