17
Properties=species:S:1:pos:R:3 gdb_83105=T pbc="F F F"
O       -0.03660000       1.50040000      -0.18640000
C        0.02850000       0.10930000      -0.00080000
C       -1.33140000      -0.65540000      -0.07000000
C       -2.58470000       0.03120000      -0.65220000
C       -2.77920000      -0.71160000      -1.96410000
C       -1.73800000      -1.49630000      -2.24160000
N       -0.76600000      -1.47990000      -1.19530000
C        0.39980000      -0.67150000      -1.26050000
N        1.34810000      -0.49250000      -2.07140000
H        0.63420000       1.72240000      -0.84410000
H        0.62110000      -0.14590000       0.88750000
H       -1.55560000      -1.26120000       0.81070000
H       -3.44290000      -0.06350000       0.01930000
H       -2.41830000       1.10250000      -0.82060000
H       -3.64790000      -0.58880000      -2.59750000
H       -1.57070000      -2.10890000      -3.11720000
H        1.27440000      -1.08690000      -2.89890000
