14
Properties=species:S:1:pos:R:3 gdb_99416=T pbc="F F F"
C       -0.05660000       1.55820000       0.07920000
C        0.00210000       0.03490000       0.00090000
C        0.73540000      -0.49820000      -1.28680000
C        2.13110000      -0.01210000      -1.31190000
N        3.21390000       0.38600000      -1.29280000
C        0.73560000      -1.97540000      -1.26310000
N        0.71250000      -3.12730000      -1.20340000
C        0.03120000      -0.03150000      -2.49970000
N       -0.54850000       0.35140000      -3.42090000
H        0.94450000       1.99730000       0.10550000
H       -0.60050000       1.98270000      -0.76910000
H       -0.57740000       1.85100000       0.99430000
H        0.53640000      -0.38690000       0.85650000
H       -1.00040000      -0.40140000      -0.01270000
