25
Properties=species:S:1:pos:R:3 gdb_85855=T pbc="F F F"
C       -0.87770000       0.98190000      -0.14560000
C        0.18770000      -0.10450000      -0.09880000
C        1.58530000       0.18430000      -0.70650000
C        2.22460000      -0.64900000       0.44200000
C        2.56690000      -2.07620000       0.02070000
O        3.32830000      -0.06700000       1.11700000
C        0.88530000      -0.48490000       1.25740000
C        0.97220000       0.68900000       2.24040000
C        0.33030000      -1.71280000       1.97730000
H       -0.51390000       1.92480000       0.27380000
H       -1.18460000       1.17660000      -1.17940000
H       -1.77450000       0.69130000       0.41350000
H       -0.22160000      -1.01830000      -0.54630000
H        1.77320000      -0.14170000      -1.73410000
H        1.85990000       1.23860000      -0.61220000
H        3.42330000      -2.06460000      -0.66640000
H        2.83430000      -2.68700000       0.88780000
H        1.74080000      -2.56250000      -0.50600000
H        4.11480000      -0.20600000       0.57890000
H        1.36560000       1.59700000       1.77830000
H       -0.01760000       0.91410000       2.65210000
H        1.63790000       0.43840000       3.07070000
H        0.96980000      -2.00570000       2.81800000
H       -0.66450000      -1.49780000       2.38500000
H        0.23260000      -2.57540000       1.31190000
