14
Properties=species:S:1:pos:R:3 gdb_55626=T pbc="F F F"
N       -0.10810000       1.30470000       0.03410000
C        0.03950000      -0.03260000      -0.15690000
O        0.99870000      -0.57240000      -0.65520000
O       -1.06220000      -0.67980000       0.33060000
C       -1.02520000      -2.12190000       0.23230000
C       -1.08820000      -2.69930000       1.57490000
C       -1.12090000      -3.18750000       2.67070000
C       -2.12510000      -2.57570000      -0.61900000
C       -3.01150000      -2.96200000      -1.32980000
H        0.54990000       1.90790000      -0.42700000
H       -1.00550000       1.67180000       0.29930000
H       -0.06710000      -2.38180000      -0.23570000
H       -1.15220000      -3.62000000       3.64040000
H       -3.79760000      -3.30560000      -1.95620000
