17
Properties=species:S:1:pos:R:3 gdb_52937=T pbc="F F F"
C       -0.10630000       1.40610000      -0.03010000
C       -0.03100000      -0.04540000      -0.01800000
C        0.02680000      -1.24910000      -0.00850000
C        0.12900000      -2.67100000      -0.01800000
C        0.53790000      -3.65760000       1.10450000
C       -0.00530000      -4.48650000      -0.07140000
O       -1.11370000      -3.50550000      -0.22730000
C        0.82670000      -3.62600000      -1.06160000
O        0.41960000      -3.55580000      -2.37840000
H        0.46320000       1.82740000      -0.86560000
H       -1.14450000       1.74070000      -0.13170000
H        0.29120000       1.83220000       0.89750000
H        1.59990000      -3.73170000       1.35100000
H       -0.10850000      -3.62940000       1.98070000
H       -0.27110000      -5.54150000      -0.11650000
H        1.91570000      -3.69710000      -1.02380000
H       -0.54590000      -3.47950000      -2.33730000
