18
Properties=species:S:1:pos:R:3 gdb_55340=T pbc="F F F"
C        0.05460000       1.45830000      -0.02330000
C        0.07780000      -0.05680000       0.04240000
O        1.09230000      -0.69160000       0.19920000
C       -1.28340000      -0.73790000      -0.10820000
C       -1.76230000      -0.88780000      -1.59610000
C       -1.65980000      -2.42880000      -1.40530000
N       -1.28500000      -2.19120000      -0.01190000
C       -0.69690000      -3.05220000       0.85780000
O       -0.57950000      -4.24090000       0.64890000
H        1.07100000       1.84060000      -0.12040000
H       -0.56450000       1.81450000      -0.85330000
H       -0.38970000       1.85320000       0.89830000
H       -2.01100000      -0.23740000       0.54450000
H       -2.76750000      -0.50990000      -1.78120000
H       -1.07750000      -0.47130000      -2.33610000
H       -2.59430000      -2.98460000      -1.52470000
H       -0.87480000      -2.92480000      -1.98400000
H       -0.36490000      -2.55230000       1.78720000
