21
Properties=species:S:1:pos:R:3 gdb_69827=T pbc="F F F"
C       -0.01650000       1.52790000       0.05040000
C       -0.03780000       0.01910000       0.07810000
C       -1.26060000      -0.65390000      -0.52620000
C       -1.08940000      -2.17720000      -0.66170000
C       -0.67910000      -2.84240000       0.65030000
C        0.73290000      -3.33240000       0.85910000
C        0.26360000      -2.07960000       1.55650000
C        0.72200000      -0.72730000       1.09860000
O        1.21870000      -0.61420000      -0.24330000
H        0.88890000       1.91290000       0.52680000
H       -0.04300000       1.89620000      -0.98130000
H       -0.88750000       1.93800000       0.57340000
H       -2.12680000      -0.41780000       0.10710000
H       -1.46760000      -0.21570000      -1.51070000
H       -2.02800000      -2.61280000      -1.01820000
H       -0.33970000      -2.37300000      -1.43320000
H       -1.46080000      -3.40540000       1.15070000
H        0.89300000      -4.22030000       1.46080000
H        1.42820000      -3.20230000       0.03710000
H        0.09450000      -2.14160000       2.62750000
H        1.30030000      -0.15690000       1.82720000
