16
Properties=species:S:1:pos:R:3 gdb_46080=T pbc="F F F"
O        0.11030000      -0.00560000       0.32250000
C        0.03570000       1.17130000       0.18410000
O       -1.11150000       1.89120000       0.21730000
C       -0.84250000       3.24940000      -0.14230000
C        0.68790000       3.36630000       0.00440000
O        1.10270000       1.99330000      -0.03270000
C        1.36300000       4.16320000      -1.08620000
C        2.73410000       3.83710000      -1.53900000
N        1.57230000       3.58320000      -2.41670000
H       -1.16910000       3.41990000      -1.17370000
H       -1.39380000       3.90830000       0.53020000
H        0.95700000       3.77490000       0.98670000
H        1.04060000       5.20370000      -1.10020000
H        3.39590000       4.63140000      -1.87060000
H        3.22390000       2.98240000      -1.08320000
H        1.36040000       2.58730000      -2.38450000
