14
Properties=species:S:1:pos:R:3 gdb_21728=T pbc="F F F"
N       -0.17680000       0.99930000      -0.05260000
H       -0.82480000       0.93680000      -0.82920000
H        1.34030000      -0.26620000       1.54120000
H        0.48450000       1.73520000      -0.27920000
C       -0.89750000       1.32100000       1.17980000
C       -0.05060000       1.01020000       2.37890000
N        1.21400000       0.49970000       2.19550000
O        1.66640000       0.16980000       3.48570000
C        0.68750000       0.69030000       4.36540000
N        0.80250000       0.67720000       5.62120000
N       -0.36770000       1.20290000       3.61300000
H       -1.24900000       2.35980000       1.26820000
H       -1.79080000       0.69020000       1.24180000
H        1.67510000       0.23290000       5.90160000
