18
Properties=species:S:1:pos:R:3 gdb_55447=T pbc="F F F"
N        0.77670000      -0.13240000      -0.41210000
C       -0.21210000       0.38020000       0.35540000
O       -0.13590000       1.41220000       0.99390000
C       -1.50490000      -0.45810000       0.38430000
O       -1.38780000      -1.55570000      -0.50730000
C       -2.39530000      -2.54300000      -0.32150000
C       -2.28460000      -3.19360000       1.05730000
C       -2.13440000      -2.12860000       2.11180000
C       -1.80330000      -0.87840000       1.80110000
H        1.64520000       0.36930000      -0.48900000
H        0.62160000      -0.98620000      -0.92010000
H       -2.29730000       0.22670000       0.03340000
H       -3.38940000      -2.08490000      -0.44070000
H       -2.25860000      -3.26940000      -1.12690000
H       -3.17750000      -3.80250000       1.24720000
H       -1.43030000      -3.88390000       1.08560000
H       -2.31120000      -2.40650000       3.14710000
H       -1.71190000      -0.09320000       2.54330000
