18
Properties=species:S:1:pos:R:3 gdb_114574=T pbc="F F F"
C        0.08600000       1.40020000      -0.27150000
N       -0.10620000       0.08720000       0.32940000
C       -1.39230000      -0.49570000       0.08960000
C       -1.82730000      -1.04840000      -1.34410000
C       -1.96540000      -2.43510000      -0.72180000
N       -0.64240000      -2.77990000      -0.17410000
C       -1.56130000      -1.92490000       0.63240000
C       -2.00020000      -2.32260000       1.92790000
N       -2.36840000      -2.63490000       2.98030000
H        1.09670000       1.75460000      -0.05170000
H       -0.05580000       1.42670000      -1.36600000
H       -0.61920000       2.11250000       0.17170000
H        0.61210000      -0.56120000       0.02460000
H       -2.17170000       0.16410000       0.48200000
H       -2.77400000      -0.62650000      -1.68590000
H       -1.07750000      -0.97730000      -2.13520000
H       -2.69230000      -3.20520000      -0.94620000
H       -0.68950000      -3.72330000       0.21040000
