23
Properties=species:S:1:pos:R:3 gdb_109590=T pbc="F F F"
C       -0.21200000       1.49640000       0.19950000
O       -0.09110000       0.10310000      -0.02910000
C       -1.33510000      -0.57790000      -0.03660000
C       -1.20320000      -1.99660000      -0.65350000
C       -0.14680000      -2.23700000      -1.72290000
C       -1.04370000      -2.59740000       0.78580000
C        0.38130000      -2.91450000       1.23350000
C       -1.61330000      -1.24900000       1.34680000
O       -1.01290000      -0.66160000       2.47040000
H        0.79830000       1.91340000       0.18150000
H       -0.80870000       1.97650000      -0.59020000
H       -0.67620000       1.71420000       1.17000000
H       -2.11400000       0.07440000      -0.45330000
H       -2.18560000      -2.27990000      -1.04740000
H        0.83980000      -1.89970000      -1.39910000
H       -0.08300000      -3.30100000      -1.97440000
H       -0.39480000      -1.69350000      -2.64100000
H       -1.68150000      -3.46520000       0.98150000
H        1.07030000      -2.08960000       1.02800000
H        0.40690000      -3.11460000       2.30910000
H        0.76540000      -3.79940000       0.71630000
H       -2.68340000      -1.31890000       1.56040000
H       -0.11530000      -0.42990000       2.20210000
