20
Properties=species:S:1:pos:R:3 gdb_19745=T pbc="F F F"
C       -0.02100000       1.50010000      -0.01520000
C        1.51060000       1.79920000      -0.03020000
C        2.04250000       0.36280000       0.01720000
C        1.14330000      -0.43870000      -0.97980000
C        1.43430000      -1.91390000      -0.68390000
C        1.43920000      -1.86060000       0.87580000
C        1.14970000      -0.36860000       1.07210000
C        0.02760000      -0.03070000       0.03690000
H       -0.52690000       1.93020000       0.85490000
H       -0.53240000       1.87000000      -0.90940000
H        1.82830000       2.33100000      -0.93250000
H        1.83370000       2.39130000       0.83180000
H        3.12660000       0.22210000       0.01870000
H        1.07370000      -0.13460000      -2.02750000
H        0.66080000      -2.57850000      -1.08140000
H        2.39330000      -2.24010000      -1.09840000
H        0.66830000      -2.49640000       1.32250000
H        2.40080000      -2.15800000       1.30560000
H        1.08640000       0.00620000       2.09710000
H       -0.92370000      -0.56890000       0.05820000
