17
Properties=species:S:1:pos:R:3 gdb_99049=T pbc="F F F"
C       -0.02190000       1.54930000      -0.05180000
C        0.00110000       0.02010000      -0.03880000
O        0.65550000      -0.46570000      -1.24990000
C       -0.13120000      -0.68580000      -2.30800000
O       -1.32710000      -0.50600000      -2.34290000
C        0.64940000      -1.20640000      -3.50160000
O       -0.19460000      -1.40690000      -4.59880000
C        0.73320000      -0.52740000       1.09530000
C        1.31900000      -0.95020000       2.05430000
H        0.99480000       1.94410000      -0.11550000
H       -0.60620000       1.90140000      -0.90500000
H       -0.48380000       1.91840000       0.86740000
H       -1.02360000      -0.36280000      -0.04870000
H        1.44490000      -0.48330000      -3.73460000
H        1.15020000      -2.13860000      -3.19950000
H       -1.08440000      -1.18110000      -4.29040000
H        1.83510000      -1.33430000       2.89970000
