22
Properties=species:S:1:pos:R:3 gdb_88669=T pbc="F F F"
C        2.81490000      -0.67510000       0.28910000
N        1.53770000      -1.33320000       0.51920000
C        1.46740000      -2.33070000       1.57920000
C        0.75700000      -1.02450000       1.72000000
C        1.16870000      -0.01210000       2.75620000
C        0.76000000       1.47770000       2.55190000
C        0.48350000       1.55520000       4.07580000
O       -0.56270000       2.34900000       4.57090000
C        0.37510000       0.00740000       4.09680000
H        3.44420000      -0.55970000       1.18540000
H        3.38170000      -1.26230000      -0.44070000
H        2.64100000       0.31780000      -0.13830000
H        0.92640000      -3.24490000       1.34730000
H        2.35190000      -2.47480000       2.20100000
H       -0.31620000      -1.01400000       1.52070000
H        2.23920000      -0.08260000       2.96550000
H        1.48350000       2.16890000       2.11340000
H       -0.17830000       1.54520000       1.98700000
H        1.37760000       1.88520000       4.61390000
H       -1.37070000       2.09680000       4.11130000
H       -0.66410000      -0.30520000       3.93530000
H        0.77620000      -0.53740000       4.95440000
