18
Properties=species:S:1:pos:R:3 gdb_58148=T pbc="F F F"
C        0.54210000       1.01930000      -0.67660000
C       -0.08050000      -0.00780000       0.25980000
O       -0.01340000       0.39620000       1.62900000
C       -1.51890000      -0.38080000      -0.13270000
N       -2.27780000      -0.79980000       0.92140000
N       -1.83760000      -0.34420000      -1.37600000
C       -3.15130000      -0.83080000      -1.76930000
C       -4.28070000      -0.08240000      -1.18630000
N       -5.13670000       0.50620000      -0.67750000
H        1.58190000       1.19790000      -0.39100000
H        0.49720000       0.66840000      -1.70780000
H       -0.00750000       1.96680000      -0.62970000
H        0.50300000      -0.93640000       0.22240000
H       -0.26790000       1.32530000       1.67060000
H       -1.89540000      -0.58220000       1.83030000
H       -3.28270000      -0.80480000       0.84660000
H       -3.23650000      -0.76690000      -2.85880000
H       -3.29410000      -1.89040000      -1.50170000
