16
Properties=species:S:1:pos:R:3 gdb_8564=T pbc="F F F"
O       -0.00290000       0.01350000      -0.34120000
C       -0.01420000       1.17770000      -0.02570000
C       -1.32210000       1.94740000       0.21150000
C       -1.04110000       3.25640000       0.94820000
C       -0.01150000       3.06620000       2.08160000
C        0.98260000       3.28320000       0.92160000
C        1.27870000       1.98180000       0.17730000
O       -0.04870000       3.99220000       0.17660000
H       -1.77010000       2.16720000      -0.76510000
H       -2.01780000       1.29480000       0.74950000
H       -1.93990000       3.84770000       1.13900000
H       -0.01330000       3.89920000       2.78530000
H        0.00810000       2.11350000       2.61710000
H        1.87020000       3.89810000       1.08900000
H        2.00530000       1.34800000       0.69670000
H        1.69490000       2.21300000      -0.81060000
