19
Properties=species:S:1:pos:R:3 gdb_62563=T pbc="F F F"
C       -0.06440000       1.56520000       0.02880000
C        0.10760000       0.06780000       0.10080000
O       -1.05060000      -0.61700000      -0.34760000
C        1.35640000      -0.73860000      -0.21390000
O        1.30280000      -1.70780000      -1.21480000
C        2.62490000      -0.08540000       0.32160000
C        2.00460000      -0.09180000       1.76310000
C        0.74320000      -0.73640000       1.21430000
O        0.00930000      -1.64170000       1.93560000
H        0.80800000       2.09000000       0.42670000
H       -0.21720000       1.88910000      -1.00630000
H       -0.94000000       1.87580000       0.60840000
H       -0.74660000      -1.27280000      -0.99320000
H        1.53200000      -1.28980000      -2.05510000
H        3.48470000      -0.75500000       0.24760000
H        2.89650000       0.89120000      -0.09330000
H        2.54370000      -0.76510000       2.43280000
H        1.88210000       0.87730000       2.25660000
H       -0.84580000      -1.69700000       1.48040000
