20
Properties=species:S:1:pos:R:3 gdb_88730=T pbc="F F F"
C        0.38590000       1.56610000      -0.24780000
C        0.18240000       0.07980000      -0.04840000
C        1.35090000      -0.87270000      -0.03370000
C        0.55330000      -0.64550000       1.23150000
C        1.16500000       0.06360000       2.39610000
N        0.39620000       0.12730000       3.63200000
C        1.66420000      -0.63410000       3.63880000
C        1.53620000      -2.10480000       3.82360000
O        2.42980000      -2.80760000       4.22600000
H        1.34090000       1.91130000       0.15990000
H        0.38670000       1.81210000      -1.31510000
H       -0.41100000       2.14850000       0.22770000
H       -0.72070000      -0.29960000      -0.51940000
H        1.26870000      -1.83150000      -0.53340000
H        2.34500000      -0.43680000      -0.07710000
H       -0.12510000      -1.44060000       1.52190000
H        1.76120000       0.93670000       2.13580000
H        0.51940000       1.01580000       4.10900000
H        2.54360000      -0.20690000       4.11520000
H        0.53520000      -2.51410000       3.56680000
