16
Properties=species:S:1:pos:R:3 gdb_14368=T pbc="F F F"
C       -0.06060000       1.57240000       0.02250000
C        1.42840000       1.22920000       0.02030000
O        1.14280000       0.07400000       0.94550000
C        0.10500000       0.03050000      -0.12150000
C       -0.88300000      -0.91870000      -0.73480000
C       -0.73490000      -0.40280000      -2.22550000
O        0.48360000       0.39470000      -2.35390000
C        1.18910000       0.20890000      -1.15080000
H       -0.45970000       1.90390000       0.98120000
H       -0.45740000       2.12030000      -0.83310000
H        2.30180000       1.82960000       0.27440000
H       -0.55100000      -1.95650000      -0.64390000
H       -1.91250000      -0.83770000      -0.38000000
H       -0.68600000      -1.24180000      -2.92720000
H       -1.57560000       0.23770000      -2.50800000
H        1.95030000      -0.57590000      -1.20470000
