21
Properties=species:S:1:pos:R:3 gdb_113209=T pbc="F F F"
C       -0.03560000       1.81160000       0.18940000
C       -0.06560000       0.29570000       0.13480000
N        1.02740000      -0.33210000      -0.62580000
C        0.93990000      -0.55500000       0.83710000
C        2.12880000      -0.05880000       1.62790000
O        3.28330000      -0.82870000       1.33480000
C       -1.47340000      -0.24120000       0.01220000
C       -2.07930000      -0.50900000      -1.31740000
N       -1.78600000      -1.61570000      -0.38560000
H        0.98630000       2.19210000       0.19190000
H       -0.54540000       2.22670000      -0.68650000
H       -0.54940000       2.18110000       1.08360000
H        0.71030000      -1.15400000      -1.13610000
H        0.58520000      -1.53530000       1.15300000
H        2.30550000       1.00810000       1.43560000
H        1.94320000      -0.17670000       2.70070000
H        3.40000000      -0.77340000       0.37880000
H       -2.12960000       0.12720000       0.79960000
H       -3.13490000      -0.32480000      -1.49370000
H       -1.44390000      -0.38450000      -2.19100000
H       -0.95040000      -2.11610000      -0.68270000
