19
Properties=species:S:1:pos:R:3 gdb_2575=T pbc="F F F"
C        0.59250000      -0.14460000       1.40970000
C        0.07210000      -0.17380000      -0.03140000
C       -1.34960000      -0.69770000      -0.13070000
C       -1.83980000      -1.33020000      -1.41060000
C       -1.59420000      -2.17560000      -0.17430000
O       -2.30190000       0.00310000       0.62880000
C       -2.63200000       1.28170000       0.12380000
H        1.60470000       0.26840000       1.45610000
H       -0.05730000       0.46540000       2.04320000
H        0.61720000      -1.15210000       1.83790000
H        0.12860000       0.83180000      -0.46810000
H        0.71630000      -0.80590000      -0.65330000
H       -2.87350000      -1.15410000      -1.68640000
H       -1.15540000      -1.41770000      -2.24780000
H       -0.73750000      -2.84080000      -0.16020000
H       -2.46550000      -2.53920000       0.35760000
H       -1.79240000       1.98820000       0.18690000
H       -2.96430000       1.23200000      -0.92300000
H       -3.45110000       1.66260000       0.73890000
