21
Properties=species:S:1:pos:R:3 gdb_60804=T pbc="F F F"
C       -0.47670000       1.42320000      -0.15880000
C       -0.19510000      -0.08390000      -0.02790000
C        0.39460000      -0.59670000      -1.32820000
O        1.40130000      -1.25440000      -1.42100000
C        0.69140000      -0.48240000       1.16450000
C        0.18270000       0.07460000       2.50830000
C        0.73820000      -2.01380000       1.28690000
C        2.08150000      -2.63280000       1.60350000
O       -0.27030000      -2.67270000       1.16460000
H        0.45300000       2.00270000      -0.17490000
H       -1.01880000       1.63680000      -1.08620000
H       -1.08950000       1.78570000       0.66890000
H       -1.15630000      -0.60910000       0.07690000
H       -0.18220000      -0.31240000      -2.23800000
H        1.70800000      -0.11390000       0.98840000
H        0.80160000      -0.28180000       3.33830000
H        0.21160000       1.16700000       2.52450000
H       -0.84530000      -0.25120000       2.69480000
H        2.57030000      -2.11250000       2.43460000
H        1.96570000      -3.69150000       1.83860000
H        2.72430000      -2.51650000       0.72420000
