12
Properties=species:S:1:pos:R:3 gdb_4747=T pbc="F F F"
N        0.02590000       1.38240000       0.15020000
C       -0.02970000       0.00330000       0.04640000
C       -1.10720000      -0.84550000       0.01180000
O       -0.63330000      -2.12260000      -0.02110000
C        0.70640000      -1.99180000      -0.00310000
C        1.56300000      -3.18140000      -0.03050000
O        1.15920000      -4.31890000      -0.07350000
N        1.11890000      -0.75060000       0.03540000
H        0.91640000       1.75360000      -0.15070000
H       -0.74770000       1.87380000      -0.27310000
H       -2.17570000      -0.72050000       0.00920000
H        2.63920000      -2.91880000      -0.00760000
