16
Properties=species:S:1:pos:R:3 gdb_48078=T pbc="F F F"
O        0.53900000       0.96710000      -1.46390000
C        0.60290000       0.88060000      -0.26560000
C        0.94390000       2.03960000       0.67930000
O        1.10350000       1.77090000       1.85180000
C        1.11030000       3.39930000       0.12010000
C        2.04820000       4.35030000       0.79150000
N        0.63050000       4.63080000       0.92360000
C        0.20980000       5.24480000      -0.39080000
C        0.60040000       3.98080000      -1.19760000
H        0.45010000      -0.06900000       0.28960000
H        2.50010000       3.99260000       1.71090000
H        2.67050000       4.99090000       0.16810000
H       -0.86150000       5.44890000      -0.37590000
H        0.75020000       6.16900000      -0.61830000
H        1.34180000       4.08500000      -1.99350000
H       -0.26210000       3.44960000      -1.59660000
