16
Properties=species:S:1:pos:R:3 gdb_64872=T pbc="F F F"
C       -0.43160000       1.61630000      -0.11850000
C        0.06560000       0.17820000      -0.08890000
C        1.12230000      -0.23140000      -1.15750000
C        2.03740000      -0.48480000       0.05130000
O        1.02430000      -0.03930000       0.98380000
C        2.43470000      -1.92750000       0.31290000
O        2.74860000      -2.69620000      -0.55670000
C       -1.05920000      -0.76500000       0.03010000
N       -1.94320000      -1.50450000       0.11280000
H        0.42060000       2.29420000      -0.21170000
H       -1.10690000       1.76990000      -0.96540000
H       -0.96960000       1.84940000       0.80390000
H        0.89590000      -1.11620000      -1.75090000
H        1.42080000       0.58980000      -1.80850000
H        2.93930000       0.14020000       0.11350000
H        2.41050000      -2.21120000       1.38770000
