18
Properties=species:S:1:pos:R:3 gdb_73229=T pbc="F F F"
C       -0.19420000       1.47220000       0.02000000
C        0.03740000      -0.01860000       0.01450000
O       -1.17470000      -0.77390000       0.29980000
C       -0.52830000      -1.50600000       1.36090000
C        0.79830000      -0.75200000       1.15010000
C        1.91530000      -1.51610000       0.44400000
O        1.57220000      -1.54220000      -0.95400000
C        0.68110000      -0.55090000      -1.25850000
N        0.40080000      -0.15920000      -2.42360000
H        0.75360000       2.01200000      -0.07300000
H       -0.82080000       1.74210000      -0.83390000
H       -0.69120000       1.77730000       0.94450000
H       -1.02000000      -1.33900000       2.32610000
H       -0.49180000      -2.58420000       1.15890000
H        1.14910000      -0.15580000       1.99170000
H        2.88420000      -1.01490000       0.55790000
H        2.01770000      -2.55170000       0.78010000
H        0.93550000      -0.67830000      -3.12250000
