17
Properties=species:S:1:pos:R:3 gdb_26309=T pbc="F F F"
C       -0.13400000       1.41270000      -0.14330000
N       -0.31440000      -0.03010000      -0.00260000
C        0.25470000      -0.60920000       1.19950000
C       -0.15420000      -0.79220000      -1.13720000
C        0.39320000      -2.00000000      -1.37400000
N        0.12410000      -2.27810000      -2.73060000
C       -0.54070000      -1.23870000      -3.31410000
O       -0.92210000      -1.07860000      -4.44150000
O       -0.72190000      -0.30410000      -2.29320000
H        0.92810000       1.70100000      -0.20460000
H       -0.64170000       1.75690000      -1.04410000
H       -0.57970000       1.91020000       0.72230000
H       -0.05700000      -0.01650000       2.06300000
H       -0.11970000      -1.62940000       1.32620000
H        1.35750000      -0.64170000       1.18090000
H        0.92980000      -2.67740000      -0.73710000
H        0.39180000      -3.09730000      -3.24490000
