21
Properties=species:S:1:pos:R:3 gdb_102454=T pbc="F F F"
C        0.17700000       1.25440000      -0.71000000
C       -0.15780000       0.14280000       0.28290000
N       -1.57330000      -0.24390000       0.26290000
C       -2.15000000      -0.60510000      -1.03520000
C       -1.54590000      -1.86600000      -1.66930000
C       -2.05110000      -0.85760000       1.40560000
N       -1.29590000      -1.16670000       2.39300000
C       -3.56020000      -0.99700000       1.52930000
O       -4.06990000      -1.66110000       2.39520000
H        1.20520000       1.58700000      -0.54070000
H        0.10990000       0.92930000      -1.75260000
H       -0.48490000       2.11560000      -0.57520000
H        0.48940000      -0.72990000       0.11250000
H        0.05310000       0.46940000       1.30250000
H       -3.22580000      -0.75120000      -0.91360000
H       -2.03570000       0.24550000      -1.71330000
H       -0.47900000      -1.74340000      -1.87650000
H       -1.66520000      -2.73200000      -1.01100000
H       -2.04730000      -2.08420000      -2.61750000
H       -1.88670000      -1.51430000       3.15110000
H       -4.17830000      -0.39770000       0.83100000
