16
Properties=species:S:1:pos:R:3 gdb_128610=T pbc="F F F"
C        0.29870000       1.50110000      -0.12140000
O        0.12110000       0.09290000      -0.11130000
C        0.53150000      -0.52750000       1.01250000
C        1.10180000      -0.06920000       2.16060000
O        1.32850000      -1.10780000       2.99620000
N        0.89570000      -2.27350000       2.38940000
C        0.42320000      -1.93680000       1.21640000
C       -0.09850000      -2.98500000       0.27790000
O       -0.21600000      -4.25230000       0.87760000
H        1.36040000       1.76330000      -0.02280000
H       -0.07730000       1.85770000      -1.08070000
H       -0.26580000       1.97340000       0.69320000
H        1.39090000       0.90300000       2.52190000
H       -1.08910000      -2.68470000      -0.08640000
H        0.55980000      -3.01270000      -0.60780000
H        0.42580000      -4.29570000       1.59640000
