21
Properties=species:S:1:pos:R:3 gdb_116279=T pbc="F F F"
C        0.39470000       1.09920000       0.44870000
O        0.26080000      -0.25820000       0.09180000
C        0.49090000      -0.52980000      -1.28570000
C        1.98860000      -0.62590000      -1.61210000
C        2.40660000      -1.97090000      -0.99040000
C        1.16220000      -2.88980000      -1.13870000
C       -0.01370000      -1.96620000      -1.56670000
C       -1.31510000      -2.27450000      -0.85530000
O       -2.38290000      -2.37450000      -1.40420000
H        1.42030000       1.47240000       0.31430000
H       -0.28390000       1.73780000      -0.13710000
H        0.13170000       1.18060000       1.50600000
H       -0.03870000       0.21260000      -1.89980000
H        2.11150000      -0.64170000      -2.70170000
H        2.56110000       0.22530000      -1.23330000
H        3.29540000      -2.39290000      -1.46590000
H        2.64120000      -1.82770000       0.06760000
H        1.31710000      -3.67240000      -1.88570000
H        0.93670000      -3.39750000      -0.19520000
H       -0.20650000      -2.04830000      -2.63990000
H       -1.21550000      -2.41400000       0.24230000
