18
Properties=species:S:1:pos:R:3 gdb_17823=T pbc="F F F"
C        0.01220000       1.48850000      -0.34570000
C       -0.07120000       0.03910000       0.06020000
O        1.13690000      -0.72940000       0.02860000
C        0.49550000      -0.53370000       1.29520000
C        1.24970000       0.23820000       2.33960000
C        0.49930000       0.50790000       3.66680000
O        1.46070000      -0.24910000       4.42530000
C        2.21020000      -0.58010000       3.23820000
H        0.87600000       1.98910000       0.09570000
H        0.09850000       1.56750000      -1.43430000
H       -0.89570000       2.02190000      -0.04360000
H       -0.92840000      -0.49140000      -0.36130000
H        0.01320000      -1.43600000       1.68260000
H        1.71650000       1.12250000       1.90650000
H        0.45270000       1.55650000       3.98420000
H       -0.50870000       0.07520000       3.72990000
H        2.22220000      -1.66070000       3.04540000
H        3.24300000      -0.21620000       3.28800000
