14
Properties=species:S:1:pos:R:3 gdb_49393=T pbc="F F F"
O       -0.62090000       0.48210000       0.64510000
C        0.14080000       0.86970000      -0.20500000
C        1.20940000       1.90630000       0.03810000
C        1.48340000       2.41710000       1.44370000
C        2.20380000       1.06830000       1.80100000
N        2.61590000       1.31350000       0.30240000
C        2.98340000       2.64620000       1.03920000
C        3.43840000       1.83840000       2.24780000
O        4.26500000       1.84510000       3.10300000
H        0.10910000       0.46650000      -1.24110000
H        1.23010000       2.62850000      -0.78780000
H        0.87370000       3.03230000       2.10800000
H        1.75140000       0.13300000       2.11710000
H        3.40780000       3.48340000       0.48820000
