20
Properties=species:S:1:pos:R:3 gdb_122398=T pbc="F F F"
C       -0.05430000       1.39940000      -0.17060000
C       -0.07910000      -0.02960000      -0.68460000
O        1.24470000      -0.54820000      -0.59840000
C        1.37170000      -1.91380000      -0.90650000
C        1.39730000      -2.21570000      -2.39480000
C        1.50630000      -3.69920000      -2.80630000
C        0.14310000      -3.46920000      -3.42380000
N       -0.66500000      -4.17460000      -4.07070000
O        0.06800000      -2.14830000      -3.02710000
H        0.29680000       1.43100000       0.86480000
H        0.61570000       2.01450000      -0.77810000
H       -1.05710000       1.83480000      -0.21310000
H       -0.75760000      -0.65010000      -0.07670000
H       -0.44550000      -0.06720000      -1.71850000
H        2.33310000      -2.23720000      -0.48700000
H        0.57620000      -2.51080000      -0.43010000
H        2.07830000      -1.53270000      -2.91020000
H        2.29870000      -3.95070000      -3.51200000
H        1.51270000      -4.41580000      -1.98150000
H       -1.50060000      -3.64460000      -4.32410000
