23
Properties=species:S:1:pos:R:3 gdb_109930=T pbc="F F F"
C        0.06890000       1.56920000       0.07140000
C       -0.09880000       0.04650000       0.01150000
C        0.67380000      -0.58370000      -1.13930000
C        2.22620000      -0.61960000      -1.10890000
O        2.67940000      -0.67150000       0.23680000
C        2.17010000      -2.00670000      -1.80520000
C        0.66840000      -2.12250000      -1.38510000
C        0.45150000      -2.99100000      -0.15090000
O       -0.24620000      -2.45980000      -2.41410000
H        1.11770000       1.83800000       0.23210000
H       -0.26280000       2.04440000      -0.85880000
H       -0.51460000       1.99960000       0.89130000
H        0.23120000      -0.38840000       0.95970000
H       -1.16100000      -0.20490000      -0.10190000
H        0.36810000      -0.12480000      -2.08660000
H        2.74210000       0.17900000      -1.65610000
H        3.61700000      -0.88810000       0.22390000
H        2.25770000      -1.92420000      -2.89150000
H        2.86490000      -2.76710000      -1.43470000
H        1.13970000      -2.71040000       0.64940000
H       -0.57600000      -2.89950000       0.21440000
H        0.63510000      -4.04550000      -0.39720000
H       -0.28880000      -3.42010000      -2.47670000
