21
Properties=species:S:1:pos:R:3 gdb_112916=T pbc="F F F"
C        0.10380000       1.22930000       0.17470000
O       -0.05860000      -0.15300000      -0.03650000
C        0.52210000      -0.61690000      -1.22920000
C        2.08110000      -0.71120000      -1.20770000
C        2.42990000      -2.13090000      -1.69400000
O        2.66780000      -2.92370000      -0.51760000
C        1.16050000      -2.59750000      -2.42920000
C        0.02470000      -2.05580000      -1.54220000
O       -0.17610000      -2.84410000      -0.38980000
H        1.16070000       1.51590000       0.28670000
H       -0.32500000       1.82060000      -0.65080000
H       -0.42420000       1.47930000       1.09820000
H        0.21570000       0.03610000      -2.06420000
H        2.53920000       0.04180000      -1.85380000
H        2.46740000      -0.56610000      -0.19570000
H        3.32370000      -2.14740000      -2.33010000
H        2.78610000      -3.83840000      -0.79640000
H        1.12460000      -2.13880000      -3.42550000
H        1.10460000      -3.68310000      -2.55590000
H       -0.93920000      -2.03130000      -2.05760000
H        0.68180000      -2.91840000       0.05080000
