11
Properties=species:S:1:pos:R:3 gdb_131383=T pbc="F F F"
O       -0.07340000       1.31000000      -0.01420000
C        0.01270000      -0.01260000       0.00840000
N        1.09700000      -0.73570000       0.03820000
N        0.65910000      -2.05220000       0.05170000
C       -0.68920000      -2.10070000       0.02970000
N       -1.72740000      -2.91650000       0.02510000
N       -2.79600000      -2.06600000      -0.00620000
N       -2.48290000      -0.81000000      -0.02090000
N       -1.10750000      -0.80980000       0.00230000
H        0.82410000       1.66970000      -0.00470000
H        1.32580000      -2.80170000       0.07500000
