19
Properties=species:S:1:pos:R:3 gdb_113912=T pbc="F F F"
N       -0.13320000       1.25510000       0.04490000
C       -0.41670000      -0.03940000      -0.37870000
O       -0.10280000      -0.45790000      -1.47570000
N       -1.07050000      -0.80380000       0.57180000
C       -1.17940000      -2.22410000       0.39410000
C       -2.38440000      -2.91370000       0.98160000
C       -2.23690000      -2.79710000      -0.51500000
C       -3.15930000      -1.91480000      -1.31090000
O       -4.36010000      -2.64270000      -1.55190000
H        0.12610000       1.85970000      -0.72000000
H       -0.76640000       1.68170000       0.70510000
H       -1.00430000      -0.48780000       1.52830000
H       -0.23480000      -2.76380000       0.41400000
H       -2.24740000      -3.87860000       1.45560000
H       -3.13190000      -2.28130000       1.44940000
H       -1.94130000      -3.69980000      -1.04070000
H       -3.36120000      -0.98880000      -0.75290000
H       -2.66530000      -1.63270000      -2.25130000
H       -4.88500000      -2.14100000      -2.18240000
