15
Properties=species:S:1:pos:R:3 gdb_126450=T pbc="F F F"
C       -0.01240000       1.44910000      -0.49490000
C       -0.07730000       0.13430000       0.29910000
C       -1.40940000      -0.54370000       0.19220000
N       -2.18520000      -0.66120000       1.24750000
O       -3.33370000      -1.31070000       0.83070000
C       -3.21940000      -1.57390000      -0.48850000
C       -2.02750000      -1.11500000      -0.95820000
C       -4.29210000      -2.24380000      -1.12540000
N       -5.15870000      -2.79000000      -1.66380000
H        0.97580000       1.90580000      -0.39290000
H       -0.19720000       1.28350000      -1.56090000
H       -0.75770000       2.16190000      -0.13080000
H        0.69900000      -0.55200000      -0.05910000
H        0.12210000       0.32010000       1.35800000
H       -1.65000000      -1.17920000      -1.96480000
