21
Properties=species:S:1:pos:R:3 gdb_80547=T pbc="F F F"
C       -0.13440000       1.62250000      -0.03090000
C       -0.01580000       0.10680000       0.00420000
C        1.10320000      -0.60620000      -0.79360000
O        2.32260000      -0.08320000      -0.24040000
C        2.09840000      -0.22370000       1.19580000
C        2.44050000       1.04320000       1.96440000
C        0.64700000      -0.72820000       1.16720000
C        0.83650000      -1.85480000       0.10100000
O       -0.34550000      -2.58200000      -0.13520000
H        0.83970000       2.10500000      -0.13060000
H       -0.74330000       1.92730000      -0.88940000
H       -0.62470000       2.01290000       0.86770000
H       -0.97530000      -0.36010000      -0.21980000
H        1.17040000      -0.62820000      -1.88210000
H        2.76180000      -1.02080000       1.56170000
H        1.75390000       1.86590000       1.76720000
H        2.42670000       0.83440000       3.03960000
H        3.45180000       1.36750000       1.69910000
H        0.14880000      -0.91690000       2.11790000
H        1.69980000      -2.51740000       0.24630000
H       -0.22800000      -3.08460000      -0.94780000
