14
Properties=species:S:1:pos:R:3 gdb_21271=T pbc="F F F"
C        0.00870000       1.38780000      -0.03790000
O       -0.03330000      -0.04760000      -0.06490000
C        0.57890000      -0.65090000      -1.06110000
N        0.64250000      -1.93550000      -1.24470000
C        1.38160000      -2.00590000      -2.40380000
C        1.74480000      -3.29500000      -3.05540000
N        1.75140000      -0.85510000      -2.90690000
O        1.20280000       0.08240000      -1.98770000
H        1.04030000       1.74280000       0.03030000
H       -0.46150000       1.80480000      -0.93230000
H       -0.54960000       1.67580000       0.85170000
H        0.84060000      -3.85310000      -3.31600000
H        2.32950000      -3.11110000      -3.95780000
H        2.32590000      -3.91470000      -2.36620000
