18
Properties=species:S:1:pos:R:3 gdb_38028=T pbc="F F F"
C       -0.02410000       1.49180000      -0.01010000
C        1.47910000       1.92320000       0.08830000
C        2.23120000       0.62250000      -0.01670000
C        3.48940000       0.16590000      -0.11750000
C        3.46400000      -1.33640000      -0.11010000
N        2.92660000      -1.90840000       1.15690000
C        2.02570000      -1.75190000      -0.02650000
C        1.26320000      -0.47820000      -0.00200000
C        0.00490000      -0.02580000      -0.01020000
H       -0.61710000       1.88800000       0.82310000
H       -0.49700000       1.87700000      -0.92350000
H        1.75720000       2.63190000      -0.69770000
H        1.67860000       2.42130000       1.04310000
H        4.40260000       0.74610000      -0.15250000
H        4.20100000      -1.91220000      -0.66090000
H        3.19000000      -2.89290000       1.20140000
H        1.64210000      -2.64340000      -0.50890000
H       -0.89950000      -0.62320000      -0.02350000
