19
Properties=species:S:1:pos:R:3 gdb_43626=T pbc="F F F"
O        0.14510000       0.07940000      -0.19390000
C        0.07310000       1.25460000       0.01760000
C       -1.09170000       2.24910000       0.11740000
C       -0.11150000       3.22360000       0.85020000
C        1.09440000       2.32630000       0.42560000
C       -0.12390000       4.66200000       0.37860000
C        1.07920000       5.57710000       0.70590000
C        1.15020000       5.78320000      -0.81900000
O        0.13170000       4.78240000      -1.04370000
H       -1.36820000       2.62600000      -0.87350000
H       -1.98970000       1.90940000       0.63820000
H       -0.26640000       3.20160000       1.93360000
H        1.83820000       2.04080000       1.17240000
H        1.59840000       2.72760000      -0.46050000
H       -1.09240000       5.12000000       0.62960000
H        0.86940000       6.45930000       1.31180000
H        1.93460000       5.04400000       1.12580000
H        0.82570000       6.77250000      -1.16570000
H        2.09330000       5.52500000      -1.31290000
