17
Properties=species:S:1:pos:R:3 gdb_47371=T pbc="F F F"
O       -0.04340000      -0.07450000       0.10120000
C       -0.04480000       1.13120000       0.04310000
C       -1.31260000       1.97060000       0.07340000
C       -1.27040000       3.06440000      -1.00850000
O       -0.07650000       3.83000000      -0.92610000
C        1.10190000       3.06160000      -1.13570000
C        1.23150000       1.95720000      -0.05340000
C        1.17230000       2.49750000      -2.49020000
C        1.23050000       2.02720000      -3.59470000
H       -2.18270000       1.32010000      -0.04410000
H       -1.37060000       2.45510000       1.05700000
H       -1.36430000       2.61210000      -2.00530000
H       -2.09010000       3.77460000      -0.87700000
H        1.92380000       3.77480000      -1.01380000
H        1.38400000       2.46090000       0.90920000
H        2.08170000       1.30130000      -0.24850000
H        1.28740000       1.61580000      -4.57260000
