10
Properties=species:S:1:pos:R:3 gdb_3874=T pbc="F F F"
N       -0.03870000       1.30850000       0.15390000
C       -0.04750000      -0.04100000       0.03620000
N       -1.08920000      -0.82750000      -0.03920000
C       -0.47930000      -2.05470000      -0.07780000
O       -1.18180000      -3.18480000      -0.15630000
N        0.82800000      -2.07190000      -0.03650000
O        1.12510000      -0.67260000       0.04180000
H        0.82040000       1.78040000      -0.07830000
H       -0.89080000       1.77790000      -0.10510000
H       -2.11330000      -2.93390000      -0.16720000
