18
Properties=species:S:1:pos:R:3 gdb_104565=T pbc="F F F"
C       -0.24110000       1.67140000       0.13100000
C        0.15500000       0.19680000       0.26190000
C        0.62300000      -0.41950000      -1.04500000
C        0.58780000      -1.97360000      -1.15560000
C       -0.47320000      -1.72210000      -2.20310000
N       -1.18500000      -2.45100000      -2.92910000
O       -0.39880000      -0.34410000      -2.10580000
C        1.92770000       0.15530000      -1.57360000
O        2.76760000       0.67080000      -0.88450000
H        0.61570000       2.28670000      -0.15590000
H       -1.02480000       1.79620000      -0.62150000
H       -0.62120000       2.04940000       1.08380000
H        0.97140000       0.08550000       0.98380000
H       -0.69320000      -0.38880000       0.63370000
H        1.49240000      -2.45400000      -1.53490000
H        0.25300000      -2.48940000      -0.25470000
H       -1.79670000      -1.89960000      -3.53300000
H        2.05460000       0.02960000      -2.67210000
