18
Properties=species:S:1:pos:R:3 gdb_40443=T pbc="F F F"
C       -0.08050000       1.47280000      -0.06410000
N        1.23400000       0.81810000       0.01820000
C        0.01490000      -0.00690000       0.05270000
C       -0.26820000      -0.73660000       1.32050000
C        0.06640000      -0.16220000       2.68530000
O       -0.03380000      -1.24950000       3.60100000
C        0.14700000      -2.47990000       2.91130000
C       -0.22290000      -2.19590000       1.47400000
O       -1.47760000      -1.51650000       1.34140000
H       -0.34490000       2.07370000       0.80120000
H       -0.40800000       1.88290000      -1.01550000
H        1.66680000       0.76720000      -0.89940000
H       -0.24540000      -0.57900000      -0.83520000
H        1.07920000       0.26400000       2.65790000
H       -0.63800000       0.60890000       3.01430000
H        1.19220000      -2.82900000       2.95690000
H       -0.49230000      -3.22920000       3.38990000
H        0.04740000      -2.88100000       0.67440000
