18
Properties=species:S:1:pos:R:3 gdb_116268=T pbc="F F F"
O       -0.09830000       1.42450000      -0.21710000
C        0.04540000       0.01250000      -0.20110000
C       -1.34270000      -0.55420000       0.06990000
C       -2.37090000      -0.14560000      -1.01650000
O       -3.21270000      -1.27320000      -1.21710000
C       -2.37130000      -2.39850000      -1.15710000
C       -1.44280000      -2.11910000       0.06030000
C       -0.17270000      -2.83040000      -0.01770000
N        0.82850000      -3.40400000      -0.09190000
H        0.75820000       1.81450000      -0.41500000
H        0.42210000      -0.36490000      -1.16520000
H        0.75100000      -0.31450000       0.57600000
H       -1.66930000      -0.18620000       1.04550000
H       -2.99800000       0.69760000      -0.72540000
H       -1.84710000       0.11540000      -1.94920000
H       -2.98430000      -3.29290000      -1.03170000
H       -1.76690000      -2.50420000      -2.07190000
H       -1.95070000      -2.44850000       0.97100000
