19
Properties=species:S:1:pos:R:3 gdb_39071=T pbc="F F F"
C        0.04190000       1.44170000       0.31060000
C        1.30470000       2.22520000       0.03870000
C        1.63190000       2.80340000      -1.12350000
C        0.92760000       2.58050000      -2.39050000
C        0.74600000       1.36580000      -2.92620000
C        1.32940000       0.09960000      -2.34780000
C        0.46840000      -0.63110000      -1.31970000
O        1.07360000      -0.87980000      -0.03740000
C       -0.06380000      -0.02170000      -0.09510000
H       -0.15950000       1.48730000       1.38750000
H       -0.80330000       1.94370000      -0.17930000
H        1.93730000       2.41460000       0.90210000
H        2.48240000       3.48420000      -1.14530000
H        0.58120000       3.45720000      -2.93600000
H        0.20250000       1.28080000      -3.86460000
H        1.55810000      -0.59800000      -3.16050000
H        2.27030000       0.33760000      -1.84490000
H       -0.08190000      -1.49030000      -1.70630000
H       -0.97130000      -0.47990000       0.30940000
