17
Properties=species:S:1:pos:R:3 gdb_1724=T pbc="F F F"
C        0.07810000       1.51930000       0.13150000
C       -0.02470000       0.00650000      -0.08020000
C        0.67910000      -0.48290000      -1.34120000
O        0.09000000       0.17420000      -2.43700000
C        2.23090000      -0.50700000      -1.25670000
O        2.22890000      -1.93660000      -1.07920000
C        0.83250000      -2.02460000      -1.42380000
H        1.12030000       1.83930000       0.24060000
H       -0.35070000       2.05740000      -0.71690000
H       -0.45540000       1.82150000       1.03740000
H        0.40060000      -0.53010000       0.77570000
H       -1.07910000      -0.28850000      -0.14880000
H        0.53900000      -0.10640000      -3.24130000
H        2.72170000      -0.20500000      -2.19490000
H        2.70890000       0.01490000      -0.42020000
H        0.26380000      -2.63230000      -0.71060000
H        0.67850000      -2.42100000      -2.43910000
