17
Properties=species:S:1:pos:R:3 gdb_4110=T pbc="F F F"
O       -0.12330000       1.28290000      -0.33800000
N       -0.03380000      -0.11640000      -0.28360000
C       -1.13280000      -0.65290000       0.05690000
C       -2.47410000      -0.02330000       0.33900000
C       -3.41200000      -1.23520000       0.56500000
C       -2.72300000      -2.40240000      -0.17100000
C       -1.23140000      -2.16660000       0.11250000
O       -0.37230000      -2.83800000      -0.77600000
H        0.76180000       1.53760000      -0.62040000
H       -2.43430000       0.67130000       1.18340000
H       -2.77230000       0.57260000      -0.53190000
H       -3.48150000      -1.45920000       1.63530000
H       -4.42840000      -1.05210000       0.20960000
H       -3.06650000      -3.38670000       0.15490000
H       -2.87980000      -2.32930000      -1.25340000
H       -1.02200000      -2.48110000       1.15250000
H        0.36990000      -2.24220000      -0.93920000
