20
Properties=species:S:1:pos:R:3 gdb_106645=T pbc="F F F"
C        0.14470000       1.47570000       0.22310000
C       -0.11500000      -0.01000000      -0.06270000
C        0.59210000      -0.50310000      -1.29100000
C        2.00360000      -1.00850000      -1.36940000
C        0.84070000      -1.92090000      -1.79670000
C        0.56340000      -3.27030000      -1.20480000
C        0.39580000      -1.40160000      -3.15720000
O        0.29500000      -1.84900000      -4.26470000
N        0.11900000      -0.11960000      -2.63550000
H        1.21250000       1.66970000       0.36770000
H       -0.20210000       2.10150000      -0.60590000
H       -0.38340000       1.79800000       1.12510000
H        0.21060000      -0.61250000       0.79360000
H       -1.19120000      -0.18060000      -0.18350000
H        2.69320000      -0.61110000      -2.10910000
H        2.47060000      -1.29960000      -0.43130000
H        0.82360000      -3.29830000      -0.14190000
H       -0.49350000      -3.53800000      -1.30250000
H        1.15050000      -4.04360000      -1.71120000
H        0.41490000       0.72740000      -3.11060000
