20
Properties=species:S:1:pos:R:3 gdb_36735=T pbc="F F F"
N       -0.16160000      -1.12290000       0.17300000
C       -0.12140000       0.03150000       0.13550000
C       -0.04670000       1.48920000       0.09120000
C        1.40260000       2.01070000       0.15200000
C        1.45340000       3.53410000       0.08210000
C        2.86810000       4.13010000       0.05040000
C        2.65960000       5.41320000      -0.76610000
C        1.60300000       4.96460000      -1.78140000
O        0.81170000       3.97440000      -1.12120000
H       -0.51820000       1.84640000      -0.82940000
H       -0.63220000       1.89320000       0.92580000
H        1.88060000       1.67240000       1.07800000
H        1.97310000       1.59200000      -0.68380000
H        0.89580000       3.94870000       0.93920000
H        3.26920000       4.30770000       1.05080000
H        3.55110000       3.44990000      -0.47180000
H        2.26340000       6.21120000      -0.12930000
H        3.57260000       5.78100000      -1.23990000
H        0.94590000       5.77670000      -2.10990000
H        2.07220000       4.52610000      -2.67440000
