22
Properties=species:S:1:pos:R:3 gdb_57443=T pbc="F F F"
C        0.59760000       2.09620000      -0.36430000
C       -0.06180000       0.70880000      -0.35640000
C        0.04290000       0.08640000       1.04850000
C       -1.54720000       0.86130000      -0.74910000
C        0.55420000      -0.27240000      -1.35500000
N        0.99230000       0.16970000      -2.66870000
C        1.99640000      -0.43320000      -1.77200000
C        3.13420000       0.43960000      -1.35840000
O        4.11910000       0.01620000      -0.80440000
H        1.60440000       2.07130000       0.06270000
H        0.65960000       2.49830000      -1.37860000
H        0.00740000       2.78920000       0.24420000
H       -0.43580000       0.73180000       1.79230000
H       -0.45050000      -0.89120000       1.09060000
H        1.08830000      -0.05120000       1.34330000
H       -1.64250000       1.30350000      -1.74600000
H       -2.06060000      -0.10680000      -0.75650000
H       -2.06920000       1.50950000      -0.03800000
H        0.04090000      -1.23600000      -1.31930000
H        0.72030000      -0.47820000      -3.40180000
H        2.30690000      -1.46370000      -1.93640000
H        3.02500000       1.50850000      -1.63120000
