16
Properties=species:S:1:pos:R:3 gdb_105345=T pbc="F F F"
O        0.05220000       1.34640000      -0.26510000
C        0.07990000       0.01660000       0.19630000
C       -1.31740000      -0.60330000       0.13030000
O       -1.85620000      -0.52600000      -1.22670000
C       -2.16750000      -1.93100000      -1.20030000
C       -0.92160000      -2.74220000      -1.11050000
C       -1.51170000      -2.12900000       0.14570000
C       -2.23830000       0.06800000       1.06060000
N       -2.95550000       0.55930000       1.82110000
H       -0.32410000       1.32780000      -1.15370000
H        0.76890000      -0.61060000      -0.38530000
H        0.42930000       0.03810000       1.23300000
H       -3.12150000      -2.23950000      -1.60800000
H       -1.06160000      -3.81740000      -1.16700000
H       -0.00180000      -2.37700000      -1.55500000
H       -1.82260000      -2.70080000       1.00760000
