19
Properties=species:S:1:pos:R:3 gdb_80600=T pbc="F F F"
C       -0.13810000       1.53620000      -0.04910000
C        0.05500000       0.02080000      -0.04040000
C        0.96430000      -0.53200000      -1.17100000
C        2.40410000      -0.33600000      -0.58830000
C        1.93830000      -1.35780000       0.50510000
C        0.83750000      -0.55340000       1.21580000
O        1.45420000       0.42930000       2.02940000
C        1.14660000      -1.97390000      -0.66670000
O        0.92680000      -3.07480000      -1.07500000
H        0.81070000       2.07370000       0.01380000
H       -0.64930000       1.84770000      -0.96530000
H       -0.76030000       1.86070000       0.79300000
H       -0.93100000      -0.45370000      -0.10110000
H        0.70230000      -0.29720000      -2.20120000
H        3.18400000      -0.73330000      -1.23940000
H        2.66720000       0.65630000      -0.22340000
H        2.62550000      -1.92850000       1.12520000
H        0.19390000      -1.20080000       1.82560000
H        0.76560000       0.91280000       2.49610000
