15
Properties=species:S:1:pos:R:3 gdb_28403=T pbc="F F F"
N        0.04840000       1.33410000      -0.01700000
C       -0.02210000      -0.02910000       0.01230000
N       -1.16080000      -0.65060000       0.04830000
C       -1.17400000      -2.02660000       0.13830000
C       -0.02890000      -2.74320000       0.18250000
O        0.12630000      -4.08980000       0.27520000
N        1.17870000      -2.08550000       0.12700000
C        1.29450000      -0.70960000       0.02450000
N        2.37930000      -0.02600000      -0.06640000
H        0.94400000       1.71350000      -0.28500000
H       -0.78750000       1.82570000      -0.28580000
H       -2.14290000      -2.51150000       0.17470000
H       -0.74520000      -4.49690000       0.31860000
H        2.01680000      -2.64810000       0.14470000
H        3.21400000      -0.61200000      -0.06080000
