17
Properties=species:S:1:pos:R:3 gdb_92943=T pbc="F F F"
C       -0.46460000       1.42050000       0.00690000
C        0.12750000       0.02810000      -0.08210000
O        1.22920000       0.02250000      -1.03130000
C        2.19480000      -0.72960000      -0.46910000
N        2.06960000      -1.15470000       0.71990000
C        0.78710000      -0.58910000       1.21350000
C        1.09340000       0.40760000       2.34520000
C       -0.06700000      -1.66690000       1.73560000
N       -0.77340000      -2.48590000       2.14190000
H        0.26960000       2.15150000       0.35260000
H       -0.82200000       1.73170000      -0.97800000
H       -1.31650000       1.42420000       0.69310000
H       -0.61950000      -0.67150000      -0.47050000
H        3.05520000      -0.91170000      -1.10380000
H        1.73130000       1.21070000       1.96910000
H        0.17760000       0.83730000       2.75820000
H        1.62960000      -0.11130000       3.14190000
