20
Properties=species:S:1:pos:R:3 gdb_59498=T pbc="F F F"
C       -0.08330000       1.48610000      -0.36560000
C        0.03860000       0.06100000       0.17200000
O        0.73220000       0.01950000       1.41850000
C       -1.31740000      -0.60970000       0.28750000
N       -1.82920000      -1.29950000      -0.90900000
C       -1.51470000      -2.08140000       0.29530000
C       -0.37310000      -3.08450000       0.20380000
C       -0.83540000      -4.41070000      -0.19230000
C       -1.24260000      -5.49650000      -0.50820000
H        0.90270000       1.95250000      -0.43840000
H       -0.54850000       1.48470000      -1.35600000
H       -0.70520000       2.10070000       0.29850000
H        0.65830000      -0.52300000      -0.51420000
H        0.25390000       0.57900000       2.04040000
H       -2.03490000      -0.03640000       0.87920000
H       -2.83170000      -1.17010000      -1.00960000
H       -2.35610000      -2.44260000       0.88400000
H        0.36860000      -2.72560000      -0.51630000
H        0.13300000      -3.13970000       1.17580000
H       -1.58870000      -6.45800000      -0.79580000
