14
Properties=species:S:1:pos:R:3 gdb_133677=T pbc="F F F"
O       -0.08640000       1.42250000       0.02460000
C        0.00170000       0.02130000      -0.01230000
C        0.65870000      -0.52070000      -1.30070000
C       -0.05500000      -0.11150000      -2.50110000
C       -0.65530000       0.22100000      -3.48660000
C        0.75920000      -0.47610000       1.22370000
F        0.14140000      -0.13030000       2.35240000
F        0.89440000      -1.81080000       1.21830000
F        1.99730000       0.05950000       1.25500000
H        0.80850000       1.78090000      -0.01290000
H       -1.02320000      -0.35310000       0.06320000
H        1.69840000      -0.16920000      -1.33800000
H        0.70580000      -1.61370000      -1.24130000
H       -1.18150000       0.51660000      -4.36030000
