21
Properties=species:S:1:pos:R:3 gdb_64277=T pbc="F F F"
C        0.03840000       1.50630000       0.00370000
C       -0.02590000      -0.01390000      -0.01590000
C       -1.46990000      -0.52970000       0.07290000
O        0.61600000      -0.41150000      -1.21680000
C        0.68110000      -1.81640000      -1.42230000
C        1.15940000      -2.54860000      -0.18610000
C        2.43790000      -2.14330000       0.51200000
C        1.10470000      -1.79280000       1.11880000
O        0.72800000      -0.44420000       1.11550000
H        1.07670000       1.82320000      -0.11070000
H       -0.55280000       1.92060000      -0.81630000
H       -0.34660000       1.88430000       0.95340000
H       -2.03240000      -0.24290000      -0.82010000
H       -1.50930000      -1.61640000       0.17590000
H       -1.95530000      -0.09350000       0.94950000
H       -0.30160000      -2.20770000      -1.72510000
H        1.36450000      -1.95750000      -2.26590000
H        0.89220000      -3.60070000      -0.15510000
H        3.03990000      -2.91790000       0.97410000
H        2.99220000      -1.31090000       0.09200000
H        0.78440000      -2.31190000       2.01840000
