17
Properties=species:S:1:pos:R:3 gdb_128384=T pbc="F F F"
C       -0.05350000       1.42140000       0.02270000
N        0.01230000      -0.03470000       0.09200000
C       -1.17420000      -0.73200000       0.02970000
N       -2.36680000      -0.20410000       0.05090000
O       -3.24370000      -1.27050000       0.02380000
N       -2.56850000      -2.47430000      -0.01530000
C       -1.30140000      -2.16450000      -0.01320000
N       -0.25720000      -3.05940000      -0.09280000
C       -0.57700000      -4.48140000      -0.02060000
H        0.95800000       1.82390000       0.10660000
H       -0.51520000       1.78550000      -0.90500000
H       -0.65030000       1.79100000       0.85980000
H        0.72510000      -0.44150000      -0.49980000
H        0.52500000      -2.78520000       0.48760000
H       -1.08120000      -4.76000000       0.91450000
H       -1.24230000      -4.73910000      -0.84800000
H        0.34660000      -5.05540000      -0.11950000
