17
Properties=species:S:1:pos:R:3 gdb_18455=T pbc="F F F"
C        0.80010000       1.19420000      -0.70890000
C        0.05390000      -0.01540000      -0.13270000
C        0.76860000      -0.60530000       1.06810000
C        0.67300000      -2.02110000       1.54370000
N        1.99360000      -1.40930000       1.03180000
C        1.91920000      -2.28940000      -0.18990000
C        0.66100000      -2.97040000       0.38160000
O        0.06520000      -3.97860000       0.13370000
H        1.79270000       0.91170000      -1.07410000
H        0.24530000       1.63540000      -1.54180000
H        0.93930000       1.97060000       0.05100000
H       -0.94520000       0.28990000       0.20110000
H       -0.11080000      -0.76470000      -0.91190000
H        0.82710000       0.09780000       1.89960000
H        0.49280000      -2.27690000       2.58240000
H        1.86610000      -1.76860000      -1.14830000
H        2.76390000      -2.98380000      -0.20010000
