16
Properties=species:S:1:pos:R:3 gdb_36176=T pbc="F F F"
N       -0.01330000      -1.14320000       0.06230000
C        0.00190000       0.01010000      -0.00620000
C        0.06350000       1.46890000      -0.09300000
C        1.48510000       1.97660000      -0.07240000
N        2.49800000       1.72170000      -1.14290000
C        3.22650000       2.56950000      -0.14010000
C        1.96190000       3.44570000       0.12670000
N        1.96990000       3.29930000       1.61740000
C        2.49800000       1.98690000       1.12230000
H       -0.43610000       1.79390000      -1.01240000
H       -0.47410000       1.90680000       0.75580000
H        2.82550000       0.75280000      -1.09570000
H        4.26430000       2.88310000      -0.25850000
H        1.62520000       4.33780000      -0.40120000
H        2.72300000       3.85750000       2.02670000
H        2.78990000       1.16210000       1.77480000
