18
Properties=species:S:1:pos:R:3 gdb_128295=T pbc="F F F"
C        0.05700000       1.47390000      -0.05460000
N       -0.09020000       0.02480000      -0.06380000
C        0.56560000      -0.67640000      -1.06480000
N        1.10970000      -0.12050000      -2.14410000
N        1.54550000      -1.16950000      -2.85630000
C        2.38060000      -1.00180000      -4.01960000
N        1.34610000      -2.36460000      -2.29160000
C        0.71390000      -2.08110000      -1.15860000
N        0.32260000      -3.03070000      -0.20710000
H        1.10340000       1.80620000       0.01340000
H       -0.35880000       1.88410000      -0.97830000
H       -0.50380000       1.88050000       0.79030000
H        0.06310000      -0.40010000       0.84190000
H        3.43230000      -0.85290000      -3.74510000
H        2.29490000      -1.89770000      -4.63550000
H        2.03160000      -0.13040000      -4.57560000
H        0.54210000      -3.96800000      -0.52350000
H       -0.66980000      -2.97540000      -0.00170000
