19
Properties=species:S:1:pos:R:3 gdb_119697=T pbc="F F F"
O       -0.16270000       1.45280000       0.09390000
C       -0.01730000       0.04410000       0.18430000
C       -1.36070000      -0.58370000      -0.18010000
C       -1.33580000      -2.08270000      -0.12880000
C       -0.57560000      -3.06540000      -1.02960000
C       -1.43880000      -4.15740000      -0.35230000
O       -0.95800000      -4.17090000       1.02370000
C       -1.58740000      -2.89790000       1.15970000
C       -2.50960000      -3.05750000       0.00060000
H        0.68260000       1.85730000       0.30910000
H        0.76230000      -0.32230000      -0.50250000
H        0.27210000      -0.26730000       1.20050000
H       -2.12230000      -0.19650000       0.50860000
H       -1.64550000      -0.23770000      -1.18180000
H       -0.84680000      -2.92590000      -2.08000000
H        0.50910000      -3.17070000      -0.92170000
H       -1.59240000      -5.14990000      -0.77000000
H       -1.71630000      -2.47250000       2.14670000
H       -3.57730000      -2.95360000      -0.13620000
