14
Properties=species:S:1:pos:R:3 gdb_28643=T pbc="F F F"
C       -0.01150000       1.49480000       0.01560000
C        0.00550000      -0.00460000       0.01370000
N        0.11410000      -0.61070000      -1.18080000
C        0.12970000      -1.93530000      -1.18730000
C        0.03820000      -2.69080000      -0.01020000
C       -0.07130000      -1.96030000       1.17760000
N       -0.08790000      -0.63230000       1.19510000
C        0.05550000      -4.11530000      -0.02380000
N        0.06970000      -5.27290000      -0.03550000
H        0.90620000       1.88030000      -0.43990000
H       -0.84370000       1.86070000      -0.59410000
H       -0.10520000       1.87440000       1.03260000
H        0.21740000      -2.42870000      -2.15200000
H       -0.14690000      -2.47090000       2.13420000
