20
Properties=species:S:1:pos:R:3 gdb_68285=T pbc="F F F"
C       -0.27220000       1.64000000      -0.13910000
C       -0.05570000       0.14990000      -0.04380000
C        0.64530000      -0.81520000      -1.03170000
N        0.20180000      -1.78180000       0.08850000
C        0.71500000      -0.66610000       1.02030000
C       -1.13190000      -1.00320000       0.08090000
C       -2.02020000      -1.12700000       1.32310000
C       -2.03450000      -1.25310000      -1.11320000
O       -1.90070000      -2.10570000      -1.95190000
H        0.68740000       2.16750000      -0.17090000
H       -0.82910000       1.90560000      -1.04390000
H       -0.83090000       2.01550000       0.72520000
H        0.19550000      -1.01940000      -2.00100000
H        1.73230000      -0.73600000      -1.10980000
H        1.80480000      -0.58130000       1.01150000
H        0.34630000      -0.71780000       2.04410000
H       -1.62690000      -0.60770000       2.19760000
H       -3.01470000      -0.71380000       1.12440000
H       -2.14470000      -2.18450000       1.57800000
H       -2.90910000      -0.55840000      -1.14060000
