19
Properties=species:S:1:pos:R:3 gdb_82192=T pbc="F F F"
C       -0.19560000       1.46340000       0.00480000
C        0.01450000      -0.03240000       0.00620000
C       -0.73690000      -0.87820000       1.00450000
C        0.76770000      -0.76270000       1.10250000
C        1.55870000      -1.87110000       0.43860000
O        0.75570000      -2.85580000      -0.24060000
C        1.36850000      -1.81000000      -1.01480000
C        0.39310000      -0.68090000      -1.34700000
O       -0.70180000      -1.10710000      -2.13650000
H        0.69200000       1.99410000      -0.35960000
H       -1.03600000       1.73440000      -0.64470000
H       -0.41770000       1.83480000       1.01020000
H       -1.32360000      -0.34060000       1.74250000
H       -1.14580000      -1.83790000       0.71410000
H        1.22130000      -0.24130000       1.93780000
H        2.45870000      -2.26010000       0.90590000
H        2.09460000      -2.14490000      -1.75160000
H        0.91350000       0.06870000      -1.95500000
H       -1.07680000      -1.87670000      -1.69240000
