19
Properties=species:S:1:pos:R:3 gdb_74461=T pbc="F F F"
C        0.03680000       1.51050000      -0.00410000
C       -0.00570000       0.01620000       0.00680000
C       -1.09360000      -0.76240000      -0.06260000
C       -0.75920000      -2.20430000      -0.02560000
C       -1.58000000      -3.28020000       0.67470000
C       -1.47580000      -3.29470000      -0.81200000
C        0.74010000      -2.26520000       0.08060000
O        1.40950000      -3.26780000       0.13740000
C        1.25290000      -0.81740000       0.10270000
H        0.63130000       1.88610000      -0.84700000
H       -0.96660000       1.93900000      -0.07850000
H        0.50850000       1.90260000       0.90620000
H       -2.11210000      -0.39590000      -0.13760000
H       -1.01070000      -4.01850000       1.22930000
H       -2.51200000      -2.96670000       1.13220000
H       -2.33450000      -2.99160000      -1.40110000
H       -0.83570000      -4.04280000      -1.26740000
H        1.95000000      -0.65150000      -0.72950000
H        1.82870000      -0.63450000       1.01970000
