15
Properties=species:S:1:pos:R:3 gdb_26985=T pbc="F F F"
N       -0.04010000       1.28140000      -0.56830000
C       -0.06900000      -0.07460000      -0.22050000
C       -1.05720000      -1.01990000      -0.05410000
C       -2.54670000      -0.92930000      -0.24810000
C       -2.96620000       0.20440000      -1.07120000
N       -3.27600000       1.11940000      -1.70650000
N       -0.51470000      -2.21020000       0.39040000
C        0.77240000      -2.00120000       0.48490000
N        1.09820000      -0.72140000       0.12940000
H        0.48810000       1.45270000      -1.41880000
H       -0.97340000       1.65020000      -0.70610000
H       -2.90120000      -1.85390000      -0.71760000
H       -3.07140000      -0.85910000       0.71480000
H        1.51560000      -2.72400000       0.78500000
H        2.00420000      -0.28570000       0.17980000
