15
Properties=species:S:1:pos:R:3 gdb_44098=T pbc="F F F"
O        0.01510000       0.07360000      -0.04880000
C        0.05810000       1.25660000      -0.01560000
O       -1.01560000       2.14460000       0.01310000
C       -0.13790000       3.27360000       0.16890000
C       -0.27850000       4.70470000      -0.30220000
C        0.69400000       5.08920000       0.87540000
C        0.50790000       3.67050000       1.50920000
O        1.61010000       2.74770000       1.32800000
C        1.11090000       2.39630000       0.02110000
H        0.02760000       4.93710000      -1.32420000
H       -1.28600000       5.09420000      -0.13440000
H        1.72400000       5.26730000       0.56360000
H        0.35560000       5.91670000       1.49970000
H        0.04890000       3.60180000       2.49550000
H        1.85740000       2.42260000      -0.77450000
