22
Properties=species:S:1:pos:R:3 gdb_117552=T pbc="F F F"
C       -0.17860000       1.37460000       0.02310000
O       -0.07220000      -0.03050000      -0.00210000
C        0.65960000      -0.50920000      -1.10210000
C        0.62530000      -2.04580000      -1.05830000
C       -0.77340000      -2.49250000      -1.08650000
N       -1.86740000      -2.86030000      -1.14530000
C        1.43860000      -2.72980000      -2.19580000
C        2.91020000      -2.29030000      -2.18680000
C        1.33860000      -4.25830000      -2.09690000
H        0.80900000       1.85730000       0.09190000
H       -0.68970000       1.75910000      -0.87280000
H       -0.76440000       1.63880000       0.90600000
H        0.22820000      -0.15160000      -2.05210000
H        1.70080000      -0.15830000      -1.05410000
H        1.04620000      -2.35390000      -0.09180000
H        0.98870000      -2.41870000      -3.14780000
H        3.37610000      -2.49330000      -1.21510000
H        3.47020000      -2.84900000      -2.94280000
H        3.03730000      -1.22730000      -2.40720000
H        0.30090000      -4.59960000      -2.12530000
H        1.87390000      -4.72830000      -2.92730000
H        1.78880000      -4.61930000      -1.16450000
