17
Properties=species:S:1:pos:R:3 gdb_97783=T pbc="F F F"
O        0.08370000       1.19660000      -0.73400000
C       -0.04810000       0.17220000       0.24620000
C       -1.38500000      -0.40060000       0.18910000
C       -2.48220000      -0.89630000       0.15540000
C       -3.79200000      -1.47060000       0.12700000
C       -4.35940000      -2.03280000      -1.15840000
C       -3.98510000      -2.99060000      -0.05020000
C       -2.86090000      -3.86610000      -0.18420000
C       -1.92840000      -4.61850000      -0.28600000
H        0.97990000       1.54190000      -0.66670000
H        0.69020000      -0.63030000       0.08480000
H        0.13020000       0.56760000       1.25980000
H       -4.51270000      -1.01390000       0.79950000
H       -5.41360000      -1.87680000      -1.35620000
H       -3.71430000      -2.01120000      -2.02770000
H       -4.81300000      -3.39830000       0.52260000
H       -1.10160000      -5.27770000      -0.37960000
