20
Properties=species:S:1:pos:R:3 gdb_13009=T pbc="F F F"
C       -0.17650000       1.54790000       0.02520000
C        0.03360000       0.02690000      -0.00990000
C        0.85870000      -0.46580000      -1.18460000
C        1.84920000      -1.27660000      -0.80630000
C        1.90840000      -1.41390000       0.67710000
C        2.20490000      -0.12170000       1.42040000
C        0.77310000      -0.55310000       1.21160000
C       -0.05540000      -0.95560000       2.40860000
H        0.77810000       2.08110000       0.06700000
H       -0.71250000       1.89040000      -0.86640000
H       -0.76670000       1.84120000       0.89990000
H       -0.96540000      -0.43610000      -0.05660000
H        0.64800000      -0.16110000      -2.20440000
H        2.55900000      -1.75670000      -1.47110000
H        2.18350000      -2.35830000       1.13550000
H        2.59010000      -0.20350000       2.43240000
H        2.61490000       0.70320000       0.84710000
H       -0.54910000      -0.08720000       2.86240000
H       -0.83770000      -1.67080000       2.12830000
H        0.56100000      -1.42240000       3.18350000
