20
Properties=species:S:1:pos:R:3 gdb_113445=T pbc="F F F"
C       -0.13460000       1.40070000      -0.02200000
N        0.08820000      -0.02580000       0.03070000
C        1.10210000      -0.61150000      -0.87470000
C        1.59400000      -1.45990000       0.30060000
C        0.74860000      -0.58920000       1.23040000
O        1.54820000      -2.87590000       0.31290000
C        2.82050000      -2.21870000       0.52560000
C        3.83720000      -2.46380000      -0.56060000
O        4.32560000      -3.79280000      -0.51880000
H        0.78840000       1.99430000       0.12950000
H       -0.55770000       1.67490000      -0.99390000
H       -0.85490000       1.69250000       0.74940000
H        0.69250000      -1.15260000      -1.73420000
H        1.85770000       0.11030000      -1.22730000
H        1.35190000       0.14150000       1.79400000
H        0.08020000      -1.11510000       1.92030000
H        3.19620000      -2.31660000       1.54550000
H        3.39240000      -2.22610000      -1.53890000
H        4.70520000      -1.81060000      -0.41750000
H        3.55610000      -4.37050000      -0.58010000
