18
Properties=species:S:1:pos:R:3 gdb_64312=T pbc="F F F"
C       -0.03200000       1.55650000      -0.04260000
C        0.01550000       0.03080000       0.00980000
O       -1.30730000      -0.51640000       0.07840000
C        0.64220000      -0.53460000      -1.26590000
N        0.93870000      -1.95160000      -1.14250000
C        1.45080000      -2.42320000       0.01560000
C        1.44440000      -1.72500000       1.18390000
C        0.75290000      -0.46170000       1.29030000
O        0.61210000       0.16610000       2.33140000
H        0.96550000       1.98470000      -0.18360000
H       -0.68050000       1.88410000      -0.86040000
H       -0.42090000       1.93560000       0.90470000
H       -1.66460000      -0.26900000       0.93970000
H       -0.05060000      -0.38420000      -2.09860000
H        1.56620000       0.02570000      -1.47520000
H        1.09450000      -2.47570000      -1.98630000
H        1.86290000      -3.42710000      -0.03570000
H        1.86120000      -2.15930000       2.08320000
