20
Properties=species:S:1:pos:R:3 gdb_39448=T pbc="F F F"
C       -0.06920000       1.50950000      -0.00640000
N        1.19060000       0.75270000       0.01180000
C        1.90330000       0.68770000       1.30130000
C        1.79160000      -0.70840000       1.90340000
O        0.44230000      -1.01930000       2.22180000
C       -0.42920000      -0.96040000       1.11540000
C       -0.39590000      -2.09700000       0.04430000
C       -0.41200000      -1.01190000      -1.07520000
C       -0.08640000       0.03370000      -0.00530000
H       -0.36690000       2.02610000       0.90580000
H       -0.26840000       2.05750000      -0.92420000
H        2.95550000       0.94000000       1.12760000
H        1.50230000       1.40970000       2.02680000
H        2.21940000      -1.45090000       1.21200000
H        2.34410000      -0.76770000       2.84490000
H       -1.43220000      -0.82020000       1.52990000
H        0.54370000      -2.65340000       0.07180000
H       -1.22460000      -2.80690000       0.06970000
H        0.32590000      -1.11240000      -1.87370000
H       -1.40180000      -0.86900000      -1.51830000
