21
Properties=species:S:1:pos:R:3 gdb_120168=T pbc="F F F"
C        0.04710000       1.36770000       0.11090000
O       -0.02180000      -0.02740000      -0.04850000
C        0.78900000      -0.49920000      -1.10850000
C        0.69740000      -2.01110000      -1.11950000
C       -0.53900000      -2.77120000      -1.70480000
C       -0.04090000      -2.42630000      -3.13760000
C        1.22090000      -2.84880000      -2.31470000
O        2.54840000      -2.84300000      -2.70320000
C        0.36720000      -4.03500000      -1.76250000
H        1.07270000       1.70490000       0.33250000
H       -0.29860000       1.90230000      -0.78890000
H       -0.60080000       1.63570000       0.94940000
H        0.47090000      -0.04390000      -2.05870000
H        1.83920000      -0.19950000      -0.94850000
H        1.01700000      -2.38870000      -0.14220000
H       -1.56150000      -2.72300000      -1.34100000
H       -0.35310000      -3.11370000      -3.92950000
H       -0.11230000      -1.39050000      -3.46980000
H        2.65070000      -3.43770000      -3.45400000
H        0.68220000      -4.46130000      -0.80670000
H        0.07690000      -4.80760000      -2.48030000
