17
Properties=species:S:1:pos:R:3 gdb_68018=T pbc="F F F"
O       -0.06530000       1.38220000      -0.00050000
C       -0.00840000      -0.00610000       0.01730000
C        0.31130000      -0.83050000       1.30610000
C       -0.46810000      -1.94520000       0.52180000
O       -0.98160000      -3.07890000       1.10350000
C       -1.34750000      -0.77790000      -0.05420000
C        0.47840000      -2.16070000      -0.64130000
O        0.81400000      -3.23050000      -1.08160000
C        0.84840000      -0.72930000      -1.05290000
H        0.83160000       1.72860000       0.05980000
H        1.35540000      -1.01460000       1.57540000
H       -0.26230000      -0.48370000       2.16750000
H       -0.60150000      -3.82670000       0.61670000
H       -2.06450000      -0.42480000       0.68890000
H       -1.82440000      -0.90950000      -1.02890000
H        0.54310000      -0.50440000      -2.07930000
H        1.92500000      -0.54850000      -0.95860000
