15
Properties=species:S:1:pos:R:3 gdb_130197=T pbc="F F F"
N        0.02120000       1.29840000       0.13920000
C       -0.00690000      -0.06380000       0.06000000
N       -1.15750000      -0.68470000       0.05350000
N       -1.11060000      -2.03590000       0.03040000
C        0.03310000      -2.76830000       0.01390000
C        1.24670000      -2.15020000       0.00070000
O        2.44810000      -2.80290000      -0.02940000
C        1.31750000      -0.71170000       0.00830000
N        2.37160000       0.03670000      -0.03300000
H        0.91780000       1.69810000      -0.10110000
H       -0.81480000       1.79690000      -0.11560000
H       -2.01180000      -2.47900000       0.03990000
H       -0.09170000      -3.84580000       0.00580000
H        2.30380000      -3.75400000      -0.05180000
H        3.21150000      -0.53980000      -0.07610000
