17
Properties=species:S:1:pos:R:3 gdb_41055=T pbc="F F F"
C        0.05350000       1.49920000      -0.13090000
O        1.48480000       1.53010000       0.21700000
C        1.40500000       0.18270000       0.64530000
C        0.94700000      -0.40750000       2.00970000
C        0.95740000      -1.72020000       1.26360000
C       -0.31320000      -0.84680000       1.26810000
C        0.01150000      -0.03170000       0.01610000
C        0.64950000      -0.94510000      -1.07670000
C        1.73420000      -1.20790000      -0.00010000
H       -0.53800000       2.05510000       0.60530000
H       -0.12040000       1.90860000      -1.13090000
H        1.14690000      -0.19110000       3.05040000
H        0.98910000      -2.71220000       1.69000000
H       -1.26000000      -1.20420000       1.65790000
H        0.07220000      -1.79410000      -1.45150000
H        1.03480000      -0.35830000      -1.91490000
H        2.71520000      -1.64140000      -0.20090000
