18
Properties=species:S:1:pos:R:3 gdb_10985=T pbc="F F F"
C       -0.00930000       1.52890000       0.04140000
C       -0.02550000       0.02140000      -0.01180000
C        0.37700000      -0.82020000      -1.26620000
C       -0.37210000      -1.92570000      -0.49750000
O        0.41700000      -2.12560000       0.69690000
C        0.73560000      -0.75760000       1.06820000
C       -1.35800000      -0.83170000      -0.03250000
O       -2.08480000      -1.04400000       1.13930000
H        1.01260000       1.92340000      -0.00020000
H       -0.56690000       1.95900000      -0.79660000
H       -0.46930000       1.88900000       0.96850000
H       -0.13670000      -0.50250000      -2.17590000
H        1.44010000      -0.98240000      -1.45500000
H       -0.66060000      -2.89140000      -0.90900000
H        1.82000000      -0.60240000       1.03740000
H        0.37220000      -0.55010000       2.08140000
H       -2.04220000      -0.48840000      -0.81180000
H       -1.57950000      -1.68650000       1.65520000
