20
Properties=species:S:1:pos:R:3 gdb_81018=T pbc="F F F"
C       -0.10560000       1.52870000      -0.09220000
C        0.02160000       0.01260000      -0.00850000
C        1.19780000      -0.62490000      -0.82240000
C        2.09170000      -0.40750000       0.43460000
C        0.77350000      -0.55690000       1.23740000
C        0.60260000       0.00140000       2.62560000
O        0.46330000      -1.98080000       1.30830000
C        0.59720000      -2.60890000       0.11490000
N        0.94500000      -2.06230000      -0.97490000
H        0.84520000       2.04570000       0.07030000
H       -0.47030000       1.82040000      -1.08270000
H       -0.81940000       1.90720000       0.64720000
H       -0.95090000      -0.45500000      -0.19080000
H        1.48790000      -0.18190000      -1.77550000
H        2.88310000      -1.13630000       0.62020000
H        2.49000000       0.60540000       0.50610000
H        0.81450000       1.07370000       2.63440000
H       -0.42010000      -0.15650000       2.98280000
H        1.28620000      -0.49280000       3.32290000
H        0.37040000      -3.66920000       0.19320000
