14
Properties=species:S:1:pos:R:3 gdb_75679=T pbc="F F F"
O       -0.09740000       1.53220000      -0.03930000
C       -0.05290000       0.13190000      -0.01670000
C        0.14930000      -0.59240000       1.33590000
O        1.00760000      -0.62200000       2.16000000
N       -1.08480000      -1.35280000       1.26480000
C       -2.14880000      -0.30760000       1.20370000
C       -1.41660000      -0.56190000      -0.05220000
C       -1.97810000      -1.19240000      -1.19620000
C       -2.44360000      -1.69310000      -2.18530000
H        0.79120000       1.86220000       0.13580000
H        0.62030000      -0.28660000      -0.77820000
H       -3.14270000      -0.73140000       1.29150000
H       -1.99380000       0.62990000       1.72990000
H       -2.85700000      -2.14420000      -3.05350000
