18
Properties=species:S:1:pos:R:3 gdb_94797=T pbc="F F F"
O        0.13600000       1.39160000      -0.03760000
C        0.09110000      -0.00410000       0.03690000
C        0.66520000      -0.63760000       1.31720000
N        0.01620000      -1.96700000       1.40810000
C       -1.33300000      -1.76640000       0.90450000
C       -2.27070000      -2.91980000       0.65700000
C       -2.53570000      -2.00640000       1.81140000
C       -1.34370000      -0.53830000       0.06070000
O       -2.28420000       0.02960000      -0.44640000
H       -0.71670000       1.66420000      -0.40880000
H        0.59150000      -0.47060000      -0.83420000
H        1.75120000      -0.74170000       1.31110000
H        0.38030000      -0.02650000       2.18130000
H        0.50870000      -2.61250000       0.79620000
H       -2.91030000      -2.84790000      -0.21600000
H       -1.87840000      -3.90880000       0.86820000
H       -2.29800000      -2.35980000       2.80740000
H       -3.35350000      -1.29970000       1.72780000
