14
Properties=species:S:1:pos:R:3 gdb_3363=T pbc="F F F"
C       -0.06620000       1.55800000       0.01090000
C        0.05900000       0.05420000       0.07750000
C        1.32510000      -0.69910000      -0.21730000
O        2.54430000       0.02950000      -0.11270000
C        2.62870000       0.39680000       1.19360000
N        1.71830000       0.02450000       1.99920000
C        0.75950000      -0.70380000       1.20010000
H        0.78890000       2.06330000       0.46420000
H       -0.14190000       1.89450000      -1.02820000
H       -0.96370000       1.89010000       0.54200000
H       -0.81540000      -0.48320000      -0.28260000
H        1.39110000      -1.52170000      -0.91800000
H        3.49870000       0.99260000       1.44160000
H        0.26900000      -1.54160000       1.68070000
