15
Properties=species:S:1:pos:R:3 gdb_10749=T pbc="F F F"
C       -0.06570000       1.47600000      -0.17520000
C       -0.01450000      -0.04280000       0.01620000
O        0.64950000      -0.27770000       1.25020000
C       -1.39140000      -0.59100000       0.06840000
N       -2.44880000      -1.05010000       0.14700000
C        0.77810000      -0.69170000      -1.12060000
C        0.44510000      -1.99200000      -1.71660000
O        0.15500000      -0.76070000      -2.39150000
H        0.95550000       1.86580000      -0.17200000
H       -0.54340000       1.71880000      -1.12640000
H       -0.62260000       1.93960000       0.64130000
H        0.66990000      -1.22870000       1.41070000
H        1.81720000      -0.35910000      -1.12360000
H        1.23870000      -2.58890000      -2.16190000
H       -0.42740000      -2.54120000      -1.36990000
