17
Properties=species:S:1:pos:R:3 gdb_124478=T pbc="F F F"
C       -0.11960000       1.58920000       0.04540000
C        0.02430000       0.06860000       0.03310000
C        0.81810000      -0.43410000       1.25340000
O       -1.29510000      -0.46710000       0.04830000
C        0.70960000      -0.41790000      -1.22680000
N        1.46610000       0.30810000      -2.00180000
O        1.86730000      -0.59140000      -3.00660000
C        1.29310000      -1.75410000      -2.70810000
N        0.57200000      -1.73400000      -1.63470000
H        0.85770000       2.07520000       0.01190000
H       -0.70530000       1.92170000      -0.81420000
H       -0.63820000       1.89100000       0.95900000
H        0.28370000      -0.15500000       2.16530000
H        0.91520000      -1.52380000       1.22590000
H        1.82210000       0.00010000       1.28110000
H       -1.22470000      -1.40830000      -0.15460000
H        1.47890000      -2.58230000      -3.37630000
