20
Properties=species:S:1:pos:R:3 gdb_12104=T pbc="F F F"
C       -0.02200000       1.50280000      -0.58050000
C       -0.03680000       0.03870000      -0.19770000
C       -1.38010000      -0.67480000      -0.22100000
C       -2.37110000      -0.12180000       0.78500000
C       -3.35190000       0.96140000       0.40490000
C       -3.83770000      -0.44380000       0.66020000
C        1.19370000      -0.75470000      -0.33830000
O        0.77410000      -0.28750000       0.94610000
H        0.99070000       1.90670000      -0.50730000
H       -0.37880000       1.63920000      -1.60740000
H       -0.67280000       2.08270000       0.07980000
H       -1.80630000      -0.61290000      -1.23160000
H       -1.20620000      -1.73720000      -0.01350000
H       -1.97910000      -0.07620000       1.79730000
H       -3.58590000       1.72960000       1.13380000
H       -3.34630000       1.31370000      -0.62170000
H       -4.15630000      -1.03190000      -0.19490000
H       -4.40240000      -0.63870000       1.56510000
H        1.13160000      -1.83250000      -0.48760000
H        2.09560000      -0.28760000      -0.73330000
