14
Properties=species:S:1:pos:R:3 gdb_14414=T pbc="F F F"
C       -0.07920000       1.55080000      -0.02000000
C        0.05310000       0.06470000      -0.01000000
C        0.08840000      -1.04260000      -0.98900000
O        1.21150000      -1.71750000      -0.41750000
C        0.93430000      -0.97140000       0.79900000
C       -0.42120000      -1.54700000       1.28360000
O       -0.82380000      -1.96170000       2.33270000
C       -1.06130000      -1.05660000       0.02530000
H        0.87180000       2.02780000      -0.27950000
H       -0.82700000       1.86600000      -0.75410000
H       -0.39300000       1.92760000       0.95890000
H       -0.06810000      -1.08270000      -2.05970000
H        1.79350000      -0.79840000       1.44150000
H       -2.10550000      -0.96820000      -0.23990000
