17
Properties=species:S:1:pos:R:3 gdb_12403=T pbc="F F F"
O        0.01720000       1.40270000       0.12370000
C       -0.00170000       0.00810000      -0.00850000
C       -1.43040000      -0.53700000       0.04010000
C       -1.38360000      -2.04960000      -0.18720000
C       -0.72170000      -2.34770000      -1.52640000
O        0.56530000      -1.71440000      -1.68530000
C        0.71330000      -0.42830000      -1.28010000
N        1.49160000       0.38990000      -1.85280000
H        0.70340000       1.70830000      -0.49130000
H        0.56190000      -0.46620000       0.81810000
H       -1.88290000      -0.28440000       1.00310000
H       -2.02600000      -0.04510000      -0.73870000
H       -0.82050000      -2.53530000       0.61900000
H       -2.38800000      -2.48620000      -0.18800000
H       -0.52780000      -3.41430000      -1.65970000
H       -1.36620000      -2.01240000      -2.35060000
H        1.92930000      -0.02090000      -2.67750000
