10
Properties=species:S:1:pos:R:3 gdb_132224=T pbc="F F F"
F        0.15560000       0.09010000       0.00140000
C       -0.04070000       1.37870000       0.01100000
C       -1.21760000       2.00210000       0.03070000
C       -1.24120000       3.47260000       0.03900000
O       -2.25170000       4.12800000       0.05660000
N        0.04320000       4.10120000       0.02450000
C        1.06530000       3.37440000       0.00620000
F        2.27740000       3.85180000      -0.00740000
O        1.15200000       2.02030000      -0.00220000
H       -2.14370000       1.44670000       0.04060000
