21
Properties=species:S:1:pos:R:3 gdb_87403=T pbc="F F F"
C        0.02140000       1.52470000      -0.33030000
C        0.01540000       0.03920000      -0.07870000
O        1.29020000      -0.63340000      -0.13790000
C        0.60490000      -0.60730000       1.09690000
C        1.18100000      -0.08510000       2.41860000
C        0.69330000       1.21390000       3.03070000
O        0.63120000      -1.24240000       3.10070000
C        0.18970000      -1.86210000       1.86550000
C       -1.26810000      -2.27450000       1.90430000
H        0.86350000       2.00590000       0.17120000
H        0.10370000       1.72440000      -1.40380000
H       -0.90820000       1.98140000       0.02560000
H       -0.78110000      -0.50740000      -0.58840000
H        2.28010000      -0.12160000       2.41460000
H       -0.39400000       1.30370000       2.95340000
H        0.96370000       1.23820000       4.09100000
H        1.15620000       2.07820000       2.54470000
H        0.82910000      -2.71910000       1.60830000
H       -1.91260000      -1.41600000       2.11460000
H       -1.56700000      -2.71550000       0.94720000
H       -1.42720000      -3.02400000       2.68580000
