16
Properties=species:S:1:pos:R:3 gdb_133073=T pbc="F F F"
C       -0.01110000       1.45950000       0.08610000
N       -0.05720000       0.02250000      -0.07050000
C        0.57350000      -0.65480000      -1.07660000
C        1.18850000       0.00260000      -2.16200000
C        1.78410000      -0.76220000      -3.15070000
N        1.82830000      -2.10120000      -3.15960000
C        1.24890000      -2.68710000      -2.13270000
F        1.28670000      -4.02030000      -2.12660000
C        0.61560000      -2.05900000      -1.07510000
H        1.01400000       1.84210000       0.19200000
H       -0.47720000       1.96670000      -0.76670000
H       -0.57210000       1.73250000       0.98180000
H       -0.33780000      -0.51760000       0.72980000
H        1.20180000       1.08200000      -2.23290000
H        2.26160000      -0.26890000      -3.99380000
H        0.16880000      -2.64460000      -0.28010000
