23
Properties=species:S:1:pos:R:3 gdb_122742=T pbc="F F F"
C        0.04610000       1.28320000       0.67240000
C       -0.09610000       0.22820000      -0.43990000
C       -1.42310000      -0.37810000      -0.48910000
C       -2.52920000      -0.85530000      -0.51480000
C       -3.85280000      -1.46910000      -0.54100000
C       -3.85520000      -2.93130000      -0.05110000
C       -5.25170000      -3.55610000      -0.08590000
C       -5.26630000      -5.00080000       0.39550000
O       -6.60290000      -5.47410000       0.32080000
H        1.05430000       1.70860000       0.67060000
H       -0.67150000       2.09600000       0.53020000
H       -0.13930000       0.83930000       1.65440000
H        0.13190000       0.68840000      -1.41010000
H        0.65880000      -0.55600000      -0.29680000
H       -4.54460000      -0.88100000       0.07730000
H       -4.25810000      -1.43020000      -1.56120000
H       -3.16480000      -3.51350000      -0.67340000
H       -3.45200000      -2.96300000       0.96830000
H       -5.94260000      -2.97610000       0.53860000
H       -5.65510000      -3.52700000      -1.10580000
H       -4.59250000      -5.60810000      -0.23140000
H       -4.88210000      -5.05230000       1.42770000
H       -6.61620000      -6.38650000       0.62360000
