23
Properties=species:S:1:pos:R:3 gdb_85889=T pbc="F F F"
C       -0.98320000       0.52720000      -1.38910000
C        0.16260000      -0.31060000      -0.83500000
C        1.60160000      -0.07630000      -1.36070000
C        2.15300000      -0.29620000       0.08000000
C        2.59690000      -1.74350000       0.31090000
C        3.24010000       0.66730000       0.55360000
C        0.68140000      -0.08250000       0.63350000
C        0.40880000       1.28630000       1.18790000
O       -0.04940000       1.49880000       2.28380000
H       -0.75980000       1.59860000      -1.37000000
H       -1.18460000       0.25460000      -2.43090000
H       -1.90530000       0.36770000      -0.81970000
H       -0.09970000      -1.36860000      -0.93130000
H        1.97060000      -0.74590000      -2.14320000
H        1.74550000       0.95670000      -1.69600000
H        3.51860000      -1.95360000      -0.24400000
H        2.79380000      -1.92820000       1.37270000
H        1.83900000      -2.46160000      -0.01760000
H        2.98170000       1.71280000       0.36270000
H        3.42780000       0.55820000       1.62780000
H        4.18130000       0.46190000       0.03050000
H        0.35270000      -0.81090000       1.37900000
H        0.65960000       2.13680000       0.51360000
