15
Properties=species:S:1:pos:R:3 gdb_5019=T pbc="F F F"
C       -0.02880000       1.51040000       0.01690000
C       -0.00520000       0.01200000      -0.01970000
C       -0.03590000      -0.68950000      -1.17890000
N       -0.01380000      -2.06240000      -1.19930000
C        0.04060000      -2.77850000      -0.03680000
C        0.07410000      -2.15350000       1.16350000
C        0.05390000      -0.69720000       1.27250000
O        0.08310000      -0.09560000       2.34460000
H        0.85840000       1.89330000       0.53220000
H       -0.07330000       1.94430000      -0.98600000
H       -0.88760000       1.86410000       0.59700000
H       -0.07940000      -0.21350000      -2.15230000
H       -0.03820000      -2.54410000      -2.08150000
H        0.05440000      -3.85620000      -0.14980000
H        0.11720000      -2.72970000       2.07950000
