21
Properties=species:S:1:pos:R:3 gdb_83093=T pbc="F F F"
C       -0.27470000       1.52850000       0.00960000
C        0.04490000       0.03640000       0.01440000
C        0.95820000      -0.50470000      -1.11950000
C        2.28850000       0.29610000      -1.14590000
C        2.82280000       0.57540000       0.24150000
C        2.16020000       0.22450000       1.34570000
C        0.83640000      -0.52090000       1.23200000
C        1.14500000      -1.93170000       0.72470000
C        1.21670000      -1.91410000      -0.60730000
H        0.61840000       2.14920000       0.11310000
H       -0.78000000       1.80980000      -0.92140000
H       -0.94970000       1.77920000       0.83570000
H       -0.89880000      -0.51900000      -0.03960000
H        0.48450000      -0.47420000      -2.10590000
H        3.04320000      -0.24870000      -1.73110000
H        2.13970000       1.24770000      -1.67600000
H        3.78350000       1.08080000       0.30840000
H        2.56660000       0.43060000       2.33180000
H        0.27540000      -0.49320000       2.16990000
H        1.36140000      -2.77050000       1.37600000
H        1.50120000      -2.74220000      -1.24670000
