15
Properties=species:S:1:pos:R:3 gdb_42188=T pbc="F F F"
O        0.08410000       0.06700000       0.51630000
C       -0.05350000       1.21900000       0.18850000
C        1.11500000       2.04230000      -0.19050000
N        2.03730000       2.67120000      -0.49100000
C       -1.37280000       1.91430000       0.10340000
C       -2.14180000       2.30260000      -1.20140000
C       -2.92020000       2.86330000       0.01520000
C       -2.72320000       1.49820000       0.73610000
N       -1.57370000       3.35790000       0.53810000
H       -1.64540000       3.04330000      -1.82700000
H       -2.59590000       1.48390000      -1.75950000
H       -3.79780000       3.50820000       0.01140000
H       -3.22960000       0.61910000       0.32990000
H       -2.75740000       1.52010000       1.82830000
H       -1.60500000       3.38910000       1.56300000
