20
Properties=species:S:1:pos:R:3 gdb_121887=T pbc="F F F"
C       -0.04080000       1.52530000      -0.10070000
C       -0.02820000       0.01880000       0.08910000
O       -1.36340000      -0.45620000       0.02740000
C       -1.46970000      -1.85340000       0.18850000
C       -2.94470000      -2.23160000       0.03660000
N       -3.43240000      -1.80690000      -1.28280000
H       -2.94200000      -0.95990000      -1.55520000
H       -3.35980000      -3.66040000      -1.64560000
H       -4.42040000      -1.57870000      -1.24350000
C       -3.05780000      -3.76190000       0.17700000
O       -2.91400000      -4.33360000       1.22460000
O       -3.28980000      -4.38590000      -0.98340000
H        0.97790000       1.92110000      -0.05630000
H       -0.47210000       1.78870000      -1.07080000
H       -0.63460000       2.00630000       0.68160000
H        0.58000000      -0.46850000      -0.69060000
H        0.41780000      -0.24740000       1.06070000
H       -0.86930000      -2.37520000      -0.57630000
H       -1.11740000      -2.17800000       1.17680000
H       -3.49700000      -1.78230000       0.87030000
