21
Properties=species:S:1:pos:R:3 gdb_79022=T pbc="F F F"
C       -0.18430000       1.58100000      -0.01380000
C        0.01180000       0.07220000       0.01540000
C        1.23570000      -0.59500000      -0.65970000
C        2.15800000      -0.15440000       0.54160000
C        3.20700000      -1.23970000       0.75770000
C        2.99370000      -2.20880000       1.89810000
C        2.37450000      -2.48290000       0.54700000
C        1.01570000      -1.86110000       0.25210000
C        0.79680000      -0.61160000       1.16730000
H        0.73270000       2.13310000       0.20920000
H       -0.53360000       1.90540000      -1.00060000
H       -0.94200000       1.88740000       0.71640000
H       -0.93670000      -0.42980000      -0.21360000
H        1.50160000      -0.59540000      -1.72000000
H        2.47110000       0.88490000       0.63530000
H        4.19670000      -1.12140000       0.33160000
H        3.84390000      -2.82450000       2.17540000
H        2.36360000      -1.92980000       2.73570000
H        2.72060000      -3.32300000      -0.04410000
H        0.16430000      -2.51400000       0.05010000
H        0.53200000      -0.61640000       2.22690000
