14
Properties=species:S:1:pos:R:3 gdb_21245=T pbc="F F F"
C        0.00650000       1.41720000      -0.01780000
O        0.00300000      -0.00870000       0.01510000
C        0.60790000      -0.61100000      -1.02700000
C        0.66680000      -1.97750000      -1.22960000
N        0.14380000      -3.08620000      -0.55180000
N        1.35040000      -2.06880000      -2.40030000
N        1.70780000      -0.86620000      -2.87850000
N        1.23760000       0.02730000      -2.03830000
H        1.02890000       1.80830000      -0.01270000
H       -0.50400000       1.79160000      -0.91110000
H       -0.52340000       1.73740000       0.88040000
H       -0.59450000      -2.78920000       0.07620000
H        0.84330000      -3.57150000       0.00290000
H        1.58700000      -2.90410000      -2.91210000
