21
Properties=species:S:1:pos:R:3 gdb_115017=T pbc="F F F"
O       -0.06360000       1.43900000      -0.08440000
C        0.01070000       0.02810000       0.07980000
C       -1.41110000      -0.53200000       0.01080000
C       -2.02900000      -0.27220000      -1.39420000
C       -1.89100000      -1.60410000      -2.09430000
C       -1.56590000      -2.57770000      -1.24420000
C       -1.42530000      -2.06770000       0.14760000
C       -0.64730000      -2.82300000       1.20270000
C       -2.14940000      -2.77420000       1.27970000
H        0.83280000       1.78510000      -0.11050000
H        0.62350000      -0.43520000      -0.70990000
H        0.46960000      -0.22660000       1.04640000
H       -1.99550000      -0.04860000       0.79960000
H       -3.08540000       0.02100000      -1.32460000
H       -1.51650000       0.55010000      -1.90280000
H       -2.07680000      -1.73420000      -3.15460000
H       -1.44380000      -3.62720000      -1.49130000
H       -0.17480000      -3.75630000       0.91280000
H       -0.08450000      -2.25560000       1.93620000
H       -2.59950000      -2.15720000       2.05080000
H       -2.70990000      -3.67260000       1.04300000
