13
Properties=species:S:1:pos:R:3 gdb_45000=T pbc="F F F"
O        0.00960000       0.02130000       0.04580000
C       -0.01860000       1.20600000       0.02130000
O       -1.15840000       1.96200000       0.04610000
C       -0.82390000       3.32670000       0.04600000
C       -0.04700000       3.83370000       1.22650000
C        0.68430000       3.37790000      -0.02610000
O        1.08150000       2.01410000      -0.01000000
C        1.47040000       4.23950000      -0.84520000
C        2.12520000       4.98500000      -1.52260000
H       -1.49340000       3.94130000      -0.54000000
H       -0.07070000       4.90300000       1.40080000
H        0.03210000       3.20700000       2.10830000
H        2.70770000       5.63680000      -2.12650000
