15
Properties=species:S:1:pos:R:3 gdb_3254=T pbc="F F F"
C       -0.00130000       1.42450000       0.16730000
C        1.31770000       0.74380000      -0.03930000
C        1.76230000       0.05680000       1.26300000
C        0.45820000      -0.76670000       1.20030000
C        0.24070000      -2.15200000       1.60950000
O       -0.38060000      -1.06160000       2.30710000
C        0.00970000      -0.06760000      -0.05790000
H       -0.26580000       1.82840000       1.14130000
H       -0.36830000       2.00650000      -0.67190000
H        1.96610000       0.97270000      -0.87450000
H        2.65560000      -0.56400000       1.15730000
H        1.87870000       0.70910000       2.13410000
H       -0.43800000      -2.78830000       1.04150000
H        1.01590000      -2.68220000       2.16250000
H       -0.50620000      -0.52760000      -0.89160000
