14
Properties=species:S:1:pos:R:3 gdb_43756=T pbc="F F F"
O        1.08780000       0.37100000      -0.49460000
C        0.52950000       1.37010000      -0.19040000
O       -0.84690000       1.62280000      -0.25780000
C       -0.61190000       3.01210000       0.10460000
C       -1.39030000       4.02530000      -0.68820000
C       -0.97880000       5.39250000      -0.37980000
N       -0.63530000       6.46360000      -0.11800000
C       -0.07550000       3.06730000       1.48350000
C        0.86180000       2.75390000       0.29790000
H       -1.25570000       3.83530000      -1.75890000
H       -2.46080000       3.91620000      -0.47480000
H        0.08170000       4.05610000       1.90370000
H       -0.33760000       2.28920000       2.19250000
H        1.73940000       3.34070000       0.07070000
