14
Properties=species:S:1:pos:R:3 gdb_128495=T pbc="F F F"
C        0.01710000       1.42840000      -0.04820000
O        0.01110000      -0.00720000      -0.01980000
C        0.58570000      -0.63700000      -1.02560000
C        0.72000000      -1.99140000      -1.24560000
C        1.42320000      -2.01620000      -2.48570000
N        1.68650000      -0.82920000      -2.96530000
O        1.13910000       0.06830000      -2.01090000
C        0.27480000      -3.06200000      -0.44670000
C       -0.09900000      -3.98930000       0.22440000
H        1.04140000       1.81030000      -0.05040000
H       -0.51180000       1.79940000      -0.93020000
H       -0.49950000       1.73620000       0.85990000
H        1.74340000      -2.88750000      -3.03970000
H       -0.43140000      -4.80150000       0.82150000
