18
Properties=species:S:1:pos:R:3 gdb_7808=T pbc="F F F"
O       -0.07790000       1.44790000      -0.02500000
C        0.00000000       0.03100000       0.00920000
C       -1.42830000      -0.50440000       0.07190000
C       -1.44980000      -2.03790000       0.07650000
C       -0.72860000      -2.62340000      -1.15430000
C        0.67260000      -2.04620000      -1.29950000
O        1.65490000      -2.73390000      -1.45140000
C        0.74150000      -0.52470000      -1.22370000
H        0.81860000       1.79880000      -0.03330000
H        0.53680000      -0.29730000       0.91560000
H       -1.92020000      -0.10600000       0.96460000
H       -1.97970000      -0.11800000      -0.79510000
H       -0.96440000      -2.40990000       0.98800000
H       -2.48160000      -2.40120000       0.10520000
H       -0.65450000      -3.71230000      -1.11040000
H       -1.29380000      -2.36000000      -2.05970000
H        0.25350000      -0.10800000      -2.11540000
H        1.79270000      -0.22160000      -1.23560000
