21
Properties=species:S:1:pos:R:3 gdb_115449=T pbc="F F F"
C       -0.30880000       1.54920000       0.16200000
C       -0.12220000       0.03080000       0.07160000
C       -1.43490000      -0.73930000      -0.08990000
C       -2.19510000      -0.45250000      -1.39940000
O       -2.86750000      -1.65800000      -1.77700000
C       -2.57360000      -2.68980000      -0.86380000
C       -1.27280000      -2.26980000      -0.14920000
C       -3.68570000      -2.88830000       0.16040000
O       -4.56130000      -2.09600000       0.38440000
H        0.65050000       2.05580000       0.30360000
H       -0.76460000       1.95380000      -0.74780000
H       -0.95570000       1.81840000       1.00430000
H        0.53900000      -0.21090000      -0.77180000
H        0.39030000      -0.32540000       0.97390000
H       -2.09490000      -0.49550000       0.75190000
H       -2.93500000       0.34660000      -1.28990000
H       -1.50260000      -0.17250000      -2.20690000
H       -2.45560000      -3.63280000      -1.41560000
H       -0.41000000      -2.54700000      -0.76440000
H       -1.14650000      -2.72890000       0.83550000
H       -3.60350000      -3.84660000       0.72900000
