18
Properties=species:S:1:pos:R:3 gdb_47610=T pbc="F F F"
O        0.02060000       0.02870000       0.35390000
C       -0.00490000       1.16610000      -0.03010000
O       -1.18890000       1.73780000      -0.35540000
C       -1.24360000       3.07120000      -0.89510000
C       -0.27120000       4.01700000      -0.20210000
C        1.15250000       3.52680000      -0.45230000
C        2.16120000       3.72790000       0.70540000
N        1.81030000       2.37540000       1.19840000
C        1.25770000       2.01290000      -0.12920000
H       -1.04270000       3.02510000      -1.97430000
H       -2.28170000       3.38350000      -0.76100000
H       -0.41900000       5.03620000      -0.57490000
H       -0.48980000       4.02040000       0.87150000
H        1.49660000       3.81690000      -1.44710000
H        3.19280000       3.82770000       0.33920000
H        1.95920000       4.53560000       1.41790000
H        2.56980000       1.79430000       1.53280000
H        1.96150000       1.48050000      -0.78320000
