20
Properties=species:S:1:pos:R:3 gdb_62824=T pbc="F F F"
C       -0.04600000       1.50100000       0.09790000
C        0.03900000      -0.02930000       0.06890000
C       -1.35020000      -0.55470000      -0.29630000
N        1.21760000      -0.61540000      -0.77970000
C        2.13720000      -0.15780000       0.37410000
C        0.94460000      -0.76590000       1.13870000
C        1.06120000      -1.88830000       0.07630000
C        0.72830000      -0.87200000       2.61310000
O        1.45460000      -0.37600000       3.43970000
H       -0.00330000       1.88340000      -0.92800000
H       -1.00290000       1.81270000       0.52590000
H        0.73840000       1.99000000       0.67470000
H       -1.66470000      -0.09610000      -1.24000000
H       -1.42600000      -1.63410000      -0.41780000
H       -2.07300000      -0.25390000       0.46900000
H        3.07660000      -0.71250000       0.40980000
H        2.32370000       0.91150000       0.41470000
H        0.20210000      -2.50990000      -0.16130000
H        1.97230000      -2.48970000       0.10590000
H       -0.18150000      -1.44240000       2.91600000
