15
Properties=species:S:1:pos:R:3 gdb_125768=T pbc="F F F"
C       -0.04510000       1.48930000       0.03340000
C       -0.00190000      -0.00700000       0.01280000
N       -0.02480000      -0.56160000      -1.14430000
O        0.01860000      -1.97990000      -1.16170000
C        0.08080000      -2.64780000       0.01010000
N        0.16240000      -3.98330000      -0.20510000
N        0.09460000      -2.14370000       1.19540000
C        0.06020000      -0.76110000       1.28820000
N        0.07350000      -0.09570000       2.38100000
H        0.83840000       1.87600000       0.54880000
H       -0.09180000       1.88270000      -0.98290000
H       -0.91140000       1.82500000       0.61010000
H       -0.08770000      -4.33820000      -1.11260000
H        0.01990000      -4.57390000       0.59700000
H        0.11630000      -0.75090000       3.16530000
