19
Properties=species:S:1:pos:R:3 gdb_117875=T pbc="F F F"
C       -0.13400000       1.57140000       0.10090000
C        0.00600000       0.03710000       0.00660000
C        0.71730000      -0.43280000      -1.28630000
C       -0.05920000      -0.12080000      -2.56170000
O        0.64860000      -0.72120000      -3.63380000
C        0.71640000      -0.48550000       1.17030000
C        1.31360000      -0.92150000       2.12640000
C        2.04230000      -1.40780000       3.26830000
O        1.85070000      -2.47570000       3.80420000
H        0.84750000       2.05140000       0.04180000
H       -0.75660000       1.95600000      -0.71110000
H       -0.59730000       1.86000000       1.04770000
H       -1.00250000      -0.40120000       0.01260000
H        1.71080000       0.02500000      -1.34570000
H        0.86910000      -1.51570000      -1.24190000
H       -1.08250000      -0.52500000      -2.48020000
H       -0.14750000       0.96630000      -2.70710000
H        0.19970000      -0.49930000      -4.45470000
H        2.82160000      -0.71010000       3.63850000
