11
Properties=species:S:1:pos:R:3 gdb_2458=T pbc="F F F"
O        0.00240000       0.01610000       0.03820000
C       -0.01400000       1.20230000       0.01420000
O       -1.14440000       1.96960000       0.02530000
C       -0.79060000       3.33570000       0.01940000
C       -0.03370000       3.83150000       1.22600000
C        0.70420000       3.35600000      -0.00040000
O        1.09500000       2.00000000      -0.00440000
H       -1.45530000       3.95040000      -0.57190000
H       -0.04600000       4.90200000       1.39960000
H       -0.01350000       3.21170000       2.11610000
H        1.33600000       3.98830000      -0.60890000
