17
Properties=species:S:1:pos:R:3 gdb_92988=T pbc="F F F"
C       -0.36250000       1.52490000      -0.05930000
C        0.06450000       0.06670000      -0.04240000
O        1.07080000      -0.14170000      -1.07590000
C        2.07060000      -0.82780000      -0.48270000
N        2.01170000      -1.10170000       0.75320000
C        0.75550000      -0.50770000       1.24150000
C        1.06180000       0.52230000       2.35210000
C        1.59880000      -0.10940000       3.55480000
N        1.99940000      -0.60090000       4.52040000
H        0.47010000       2.19250000       0.17810000
H       -0.73500000       1.78900000      -1.05220000
H       -1.16910000       1.69930000       0.65930000
H       -0.78670000      -0.56740000      -0.31200000
H        2.88680000      -1.09580000      -1.14460000
H        0.13620000      -1.29530000       1.68090000
H        1.78470000       1.26090000       1.99120000
H        0.15060000       1.06270000       2.62990000
