17
Properties=species:S:1:pos:R:3 gdb_124953=T pbc="F F F"
C       -0.03860000       1.43830000      -0.22490000
C       -0.11270000      -0.03220000      -0.01290000
C       -1.14560000      -0.92490000       0.06650000
C       -0.47640000      -2.16090000       0.31680000
N        0.82300000      -2.03140000       0.36820000
O        1.05810000      -0.67240000       0.15890000
C       -2.60710000      -0.70420000      -0.03710000
C       -3.19370000       0.09010000      -1.14990000
N       -3.38250000      -1.36780000      -1.10950000
H        0.53600000       1.67760000      -1.12590000
H       -1.04140000       1.85500000      -0.32590000
H        0.45850000       1.92610000       0.61990000
H       -0.91440000      -3.14030000       0.45400000
H       -3.14420000      -0.70450000       0.90990000
H       -4.09370000       0.67390000      -0.98000000
H       -2.51710000       0.50370000      -1.89230000
H       -2.73430000      -1.80350000      -1.76240000
