18
Properties=species:S:1:pos:R:3 gdb_105597=T pbc="F F F"
C        0.14460000       1.53570000       0.21090000
C       -0.05610000       0.03880000      -0.04080000
C        0.69830000      -0.45970000      -1.28130000
N        2.17750000      -0.36660000      -1.23330000
C        2.36350000      -1.81410000      -1.53980000
C        0.85550000      -2.01070000      -1.38180000
O        0.10300000      -2.93050000      -1.29800000
C        0.10240000       0.09560000      -2.56200000
O        0.76510000       0.56470000      -3.45330000
H        1.20950000       1.76340000       0.31200000
H       -0.25420000       2.14370000      -0.60880000
H       -0.35980000       1.84460000       1.13080000
H        0.29490000      -0.53390000       0.82360000
H       -1.11920000      -0.20120000      -0.16500000
H        2.51150000       0.22680000      -1.98890000
H        2.70480000      -2.03870000      -2.55890000
H        2.99270000      -2.35770000      -0.82740000
H       -1.00420000       0.03040000      -2.62860000
