21
Properties=species:S:1:pos:R:3 gdb_70883=T pbc="F F F"
C       -0.12380000       1.44120000       0.00260000
C        0.02280000      -0.05120000      -0.02130000
C        0.97490000      -0.87150000      -0.89480000
C        0.12640000      -2.10020000      -0.46180000
O       -0.06650000      -3.19390000      -1.29390000
C        0.42940000      -2.25590000       1.05570000
C       -0.30910000      -0.92770000       1.20770000
C       -1.05690000      -1.11020000      -0.09700000
C       -2.50290000      -1.09020000      -0.46610000
H        0.76890000       1.92400000       0.41820000
H       -0.28080000       1.84440000      -1.00450000
H       -0.97740000       1.74560000       0.61840000
H        0.82510000      -0.64960000      -1.95600000
H        2.04740000      -0.87730000      -0.65940000
H        0.77460000      -3.65420000      -1.39330000
H       -0.14400000      -3.08340000       1.48380000
H        1.47970000      -2.32500000       1.36560000
H       -0.68290000      -0.47500000       2.11830000
H       -3.00250000      -0.21670000      -0.03260000
H       -2.64010000      -1.04640000      -1.55260000
H       -3.02460000      -1.98360000      -0.10440000
