19
Properties=species:S:1:pos:R:3 gdb_33105=T pbc="F F F"
C        0.62990000       1.45660000      -0.02460000
O        0.74240000       0.05680000      -0.00640000
C       -0.01120000      -0.56590000      -1.02600000
C        0.16960000      -2.04860000      -0.94500000
C        0.97930000      -2.71790000      -0.06150000
N        0.86620000      -4.06540000      -0.32760000
C       -0.00040000      -4.26490000      -1.37150000
N       -0.30230000      -5.58400000      -1.77520000
C       -0.44930000      -3.02890000      -1.78180000
H        0.99010000       1.88560000      -0.97400000
H       -0.41110000       1.78720000       0.12390000
H        1.24250000       1.84670000       0.79230000
H       -1.07920000      -0.29830000      -0.92450000
H        0.30640000      -0.18460000      -2.01430000
H        1.61800000      -2.34380000       0.71950000
H        1.26260000      -4.81160000       0.21640000
H       -1.17780000      -5.60590000      -2.28370000
H        0.41230000      -5.97190000      -2.38540000
H       -1.12860000      -2.84650000      -2.60170000
