23
Properties=species:S:1:pos:R:3 gdb_104359=T pbc="F F F"
C       -0.21720000       1.58830000      -0.04020000
C       -0.00600000       0.07110000       0.00070000
C        0.75540000      -0.49370000       1.22390000
C        0.13210000      -0.01390000       2.55160000
C        0.82830000      -2.04010000       1.17500000
C        2.17890000      -2.42000000       1.81750000
C        3.12800000      -1.31500000       1.33540000
C        2.24390000      -0.07120000       1.22220000
O        2.64700000       1.06460000       1.16250000
H        0.73360000       2.11930000       0.03410000
H       -0.70340000       1.87320000      -0.97870000
H       -0.85980000       1.93080000       0.77660000
H       -0.98070000      -0.43470000      -0.03780000
H        0.52740000      -0.24150000      -0.90670000
H       -0.94150000      -0.23250000       2.56450000
H        0.58500000      -0.51690000       3.41230000
H        0.27060000       1.06120000       2.68580000
H       -0.02520000      -2.51130000       1.67120000
H        0.81690000      -2.37410000       0.13000000
H        2.10250000      -2.39890000       2.91040000
H        2.50810000      -3.42390000       1.53850000
H        3.99890000      -1.12340000       1.96600000
H        3.50400000      -1.53770000       0.32690000
