16
Properties=species:S:1:pos:R:3 gdb_28266=T pbc="F F F"
O       -0.02340000       1.28080000       0.16430000
C        0.02050000      -0.05780000       0.02550000
N        0.07210000      -0.72970000      -1.09430000
C        0.10660000      -2.05260000      -0.67070000
C        0.07960000      -2.13640000       0.67590000
N        0.03410000      -3.42000000       1.25210000
C       -0.13770000      -4.28130000       0.02370000
C        0.17780000      -3.42950000      -1.26250000
N        0.01650000      -0.83910000       1.15590000
H       -0.00250000       1.64000000      -0.73160000
H        0.90710000      -3.65360000       1.72150000
H        0.48560000      -5.17410000       0.11010000
H       -1.18320000      -4.60210000      -0.00430000
H       -0.56530000      -3.62950000      -2.04040000
H        1.16310000      -3.65880000      -1.69280000
H       -0.06050000      -0.51110000       2.10280000
