23
Properties=species:S:1:pos:R:3 gdb_93785=T pbc="F F F"
C       -0.10420000       1.57980000       0.03390000
C       -0.01560000       0.05200000      -0.01840000
C        0.66020000      -0.44720000      -1.30430000
C        0.72250000      -1.98000000      -1.35430000
C        1.43720000      -2.60040000      -0.13280000
C        2.96810000      -2.41990000      -0.18400000
C        0.88220000      -2.02190000       1.17040000
O        0.59420000      -2.72740000       2.11040000
C        0.72180000      -0.50760000       1.21750000
H        0.89510000       2.03070000       0.01500000
H       -0.66360000       1.97260000      -0.82170000
H       -0.60440000       1.91890000       0.94690000
H       -1.03950000      -0.35010000      -0.00280000
H        0.11440000      -0.07360000      -2.17840000
H        1.67050000      -0.02060000      -1.37030000
H       -0.30200000      -2.37170000      -1.39870000
H        1.22040000      -2.31300000      -2.27260000
H        1.22810000      -3.67400000      -0.09520000
H        3.26310000      -1.36670000      -0.21010000
H        3.44270000      -2.88040000       0.68750000
H        3.37130000      -2.89930000      -1.08200000
H        1.72560000      -0.05930000       1.25870000
H        0.21100000      -0.24900000       2.14890000
