20
Properties=species:S:1:pos:R:3 gdb_63495=T pbc="F F F"
C       -0.12920000       1.57670000       0.04220000
C        0.00970000       0.07160000       0.02100000
O       -1.18230000      -0.57910000      -0.36140000
C        1.31490000      -0.59370000      -0.35140000
C        0.78930000      -0.68480000       1.07700000
C        1.51020000       0.02460000       2.20600000
N        0.18140000      -1.93350000       1.45970000
C        0.87780000      -3.01570000       1.89410000
O        2.07380000      -3.05580000       2.09940000
H        0.79190000       2.07180000       0.35590000
H       -0.37480000       1.94240000      -0.96180000
H       -0.93590000       1.87960000       0.71700000
H       -1.24680000      -0.55380000      -1.32170000
H        1.26450000      -1.49920000      -0.94540000
H        2.18070000       0.03290000      -0.53840000
H        1.98850000       0.94410000       1.86190000
H        0.81480000       0.27770000       3.01330000
H        2.28250000      -0.63520000       2.60660000
H       -0.78320000      -2.05750000       1.18950000
H        0.20880000      -3.88460000       2.06310000
