17
Properties=species:S:1:pos:R:3 gdb_32546=T pbc="F F F"
C        0.13400000       1.38560000       0.30950000
N       -0.29560000       0.11520000      -0.27960000
C        0.49980000      -0.57940000      -1.18350000
C        0.68800000      -1.91900000      -1.05940000
N        1.36220000      -2.63400000      -2.03960000
C        1.88480000      -1.97230000      -3.10040000
N        1.78550000      -0.70250000      -3.28570000
C        1.07870000       0.09610000      -2.37030000
N        0.92060000       1.35690000      -2.55860000
H        1.00030000       1.27460000       0.98060000
H        0.39070000       2.07460000      -0.49290000
H       -0.70050000       1.79160000       0.88790000
H       -0.68540000      -0.50500000       0.41880000
H        0.30740000      -2.49630000      -0.22620000
H        1.47860000      -3.62920000      -1.95130000
H        2.41360000      -2.58860000      -3.82480000
H        1.38750000       1.60600000      -3.43260000
