17
Properties=species:S:1:pos:R:3 gdb_51264=T pbc="F F F"
O        1.98010000       4.10530000       0.15350000
C        1.07970000       3.30470000       0.04830000
N        1.22050000       1.94770000      -0.09100000
C        2.41390000       1.22540000      -0.13130000
C        2.52120000      -0.10750000      -0.21560000
C        3.95420000      -0.48580000      -0.33020000
C        4.66970000       0.03630000      -1.53170000
N        4.74810000       0.76490000      -0.26170000
C        3.78780000       1.87750000      -0.11670000
H        0.01020000       3.59120000       0.04820000
H        0.36500000       1.41600000      -0.16200000
H        1.70460000      -0.81870000      -0.22700000
H        4.33310000      -1.35180000       0.20690000
H        5.61110000      -0.40480000      -1.84930000
H        4.05450000       0.44290000      -2.33240000
H        3.91300000       2.61590000      -0.91380000
H        3.96970000       2.40330000       0.82580000
