20
Properties=species:S:1:pos:R:3 gdb_121893=T pbc="F F F"
C       -0.45970000       1.36440000      -0.48730000
N       -0.59120000      -0.08660000      -0.35890000
H       -1.63450000      -1.23440000      -1.37250000
H        0.32750000      -0.51260000      -0.44740000
C       -1.18320000      -0.51490000       0.92010000
C       -1.45830000      -2.01990000       0.90770000
C       -2.53590000      -2.41560000      -0.11570000
O       -2.21160000      -2.02810000      -1.44140000
C       -2.74090000      -3.93830000      -0.08740000
O       -3.10760000      -4.52880000       0.89350000
O       -2.45130000      -4.54210000      -1.24680000
H        0.05180000       1.60440000      -1.42300000
H       -1.45530000       1.81760000      -0.51970000
H        0.09640000       1.82660000       0.34380000
H       -0.54680000      -0.24680000       1.77930000
H       -2.12610000       0.03290000       1.04420000
H       -0.52910000      -2.56190000       0.68450000
H       -1.79110000      -2.35330000       1.89410000
H       -3.49240000      -1.96480000       0.19220000
H       -2.18540000      -3.82320000      -1.85370000
