20
Properties=species:S:1:pos:R:3 gdb_90684=T pbc="F F F"
C        0.15070000       1.62380000      -0.28800000
C        0.14170000       0.10070000      -0.23880000
C        1.41990000      -0.59220000      -0.78000000
N        1.80500000      -1.09750000       0.59440000
C        0.53950000      -0.48570000       1.12020000
C        0.71470000      -1.96900000       1.12300000
C       -0.12110000      -2.93770000       0.34000000
C       -0.48810000      -4.20440000       1.09480000
O       -0.49180000      -2.75210000      -0.80130000
H        1.07760000       2.03130000       0.13110000
H        0.06430000       1.97790000      -1.32050000
H       -0.68710000       2.04370000       0.27960000
H       -0.79220000      -0.29250000      -0.64490000
H        1.28980000      -1.37020000      -1.53030000
H        2.18970000       0.11450000      -1.10010000
H        0.51280000       0.05330000       2.06480000
H        1.02210000      -2.36380000       2.08860000
H       -0.97020000      -3.96110000       2.04860000
H       -1.15540000      -4.81510000       0.48600000
H        0.41770000      -4.77420000       1.33350000
