25
Properties=species:S:1:pos:R:3 gdb_113195=T pbc="F F F"
C       -0.00140000       1.48090000      -0.53880000
C       -0.07370000       0.16820000       0.24950000
C       -1.42650000      -0.50510000       0.14230000
C       -1.76950000      -1.35940000      -1.06960000
C       -1.59370000      -1.99100000       0.29160000
O       -0.39940000      -2.70250000       0.52140000
C       -2.80460000      -2.54410000       1.03600000
C       -3.13750000      -3.97140000       0.57500000
C       -2.58560000      -2.48430000       2.55410000
H        0.98420000       1.94710000      -0.44150000
H       -0.19090000       1.31180000      -1.60420000
H       -0.74660000       2.20100000      -0.18220000
H        0.69810000      -0.52510000      -0.09730000
H        0.14870000       0.36310000       1.30670000
H       -2.25090000       0.08620000       0.53740000
H       -2.76390000      -1.29730000      -1.50020000
H       -0.97270000      -1.52270000      -1.78910000
H       -0.43160000      -3.50910000      -0.00320000
H       -3.65610000      -1.89950000       0.77990000
H       -2.32750000      -4.66460000       0.83030000
H       -4.04400000      -4.34020000       1.06470000
H       -3.29720000      -4.01580000      -0.50770000
H       -3.44690000      -2.89030000       3.09440000
H       -1.70030000      -3.06390000       2.83240000
H       -2.42910000      -1.45430000       2.88990000
