14
Properties=species:S:1:pos:R:3 gdb_28949=T pbc="F F F"
O        0.35590000       1.32200000       0.07660000
C        0.18070000      -0.00620000      -0.02660000
N        0.17470000      -0.71970000      -1.11560000
C       -0.03740000      -2.01920000      -0.67620000
C       -0.15150000      -2.06450000       0.67910000
N       -0.00400000      -0.74210000       1.10600000
C       -0.04390000      -0.23770000       2.46080000
C       -1.38870000      -0.28280000       3.05560000
N       -2.43740000      -0.32740000       3.53650000
H        0.47710000       1.65340000      -0.82210000
H       -0.09240000      -2.83920000      -1.37470000
H       -0.32640000      -2.86400000       1.37900000
H        0.63900000      -0.81080000       3.09760000
H        0.30600000       0.79750000       2.44860000
