19
Properties=species:S:1:pos:R:3 gdb_88020=T pbc="F F F"
O        0.07440000       1.29260000      -0.05520000
C        0.07700000      -0.08880000       0.11470000
C       -0.55840000      -0.70040000       1.36100000
C       -1.24630000      -0.77970000       0.03430000
O       -2.38080000       0.05490000      -0.25210000
C       -2.91010000      -0.93610000      -1.17690000
C       -1.77820000      -1.89790000      -0.82540000
C       -1.04230000      -2.87080000      -1.69050000
C       -1.86120000      -3.35970000      -0.51500000
H       -0.81380000       1.52200000      -0.36560000
H        0.96090000      -0.57170000      -0.29620000
H       -0.12050000      -1.60470000       1.77390000
H       -0.97980000      -0.01240000       2.08700000
H       -3.92070000      -1.24630000      -0.88980000
H       -2.91580000      -0.56220000      -2.20770000
H       -1.42100000      -3.05130000      -2.69160000
H        0.03990000      -2.90530000      -1.61250000
H       -1.33430000      -3.72290000       0.36180000
H       -2.79620000      -3.87240000      -0.71760000
