22
Properties=species:S:1:pos:R:3 gdb_86318=T pbc="F F F"
C       -0.43630000       1.22330000       1.19240000
C        0.08990000      -0.05300000       0.55170000
C        0.54720000       0.03170000      -0.93390000
C        1.93380000      -0.52410000      -0.49750000
C        3.17520000       0.28710000      -0.83220000
N        1.47260000      -0.44080000       0.89930000
C        2.01220000      -1.12030000       1.95210000
C        1.19170000      -1.12850000       3.23250000
O        3.10300000      -1.66120000       1.86370000
H        0.26780000       2.04820000       1.04620000
H       -1.39440000       1.50080000       0.73950000
H       -0.59930000       1.09840000       2.26720000
H       -0.61940000      -0.87450000       0.72340000
H       -0.01440000      -0.58330000      -1.63760000
H        0.59090000       1.05710000      -1.30960000
H        2.08820000      -1.56950000      -0.79260000
H        3.04790000       1.33480000      -0.54070000
H        4.03990000      -0.11960000      -0.30260000
H        3.37380000       0.24910000      -1.90890000
H        0.16040000      -1.45060000       3.05430000
H        1.66730000      -1.80700000       3.94040000
H        1.15340000      -0.12590000       3.67030000
