16
Properties=species:S:1:pos:R:3 gdb_26857=T pbc="F F F"
C        0.10150000       1.48950000       0.02400000
C       -0.06360000       0.00310000       0.01540000
C       -1.24000000      -0.68070000       0.00240000
N       -2.50950000      -0.06870000       0.07390000
C       -1.16850000      -2.11180000       0.00010000
C        0.01700000      -2.76340000       0.01110000
C        1.26950000      -2.03850000       0.04690000
O        2.38460000      -2.49250000       0.06930000
O        1.12810000      -0.64820000       0.05560000
H        1.06540000       1.75210000      -0.41760000
H       -0.68730000       1.98420000      -0.55210000
H        0.07770000       1.89810000       1.04190000
H       -2.48660000       0.93070000      -0.07690000
H       -3.17980000      -0.48620000      -0.56050000
H       -2.10050000      -2.67150000      -0.00490000
H        0.08800000      -3.84330000       0.00310000
