17
Properties=species:S:1:pos:R:3 gdb_56996=T pbc="F F F"
O       -0.01180000       1.50740000      -0.19790000
C        0.02610000       0.09500000      -0.07720000
C        0.66390000      -0.53220000      -1.24360000
C        1.20760000      -1.04090000      -2.18700000
C        0.73350000      -0.33660000       1.22450000
O        1.90180000       0.49270000       1.49340000
C        1.44850000       0.69680000       2.84330000
C        0.16580000       1.45880000       2.89040000
C        0.14680000      -0.03170000       2.60310000
H        0.89510000       1.79940000      -0.03020000
H       -1.01860000      -0.23530000      -0.01960000
H        1.67960000      -1.48620000      -3.02790000
H        1.03640000      -1.38670000       1.14640000
H        2.19010000       0.63390000       3.63010000
H       -0.17020000       1.70620000       3.89320000
H       -0.08670000       2.17770000       2.12150000
H       -0.37710000      -0.74850000       3.22010000
