17
Properties=species:S:1:pos:R:3 gdb_98513=T pbc="F F F"
C       -0.03240000       1.54250000       0.07590000
C       -0.21290000       0.07630000      -0.30700000
C        0.96440000      -0.48870000      -1.06710000
O        1.94080000       0.16430000      -1.35030000
C        0.93710000      -1.96940000      -1.47190000
C        1.93860000      -2.39980000      -2.48720000
O        2.14490000      -2.67870000      -1.12410000
C       -0.27490000      -2.84500000      -1.37200000
O       -1.41680000      -2.46660000      -1.31230000
H        0.84950000       1.68020000       0.70670000
H        0.10290000       2.16500000      -0.81220000
H       -0.90880000       1.90300000       0.62070000
H       -0.37150000      -0.55680000       0.57770000
H       -1.11140000      -0.08900000      -0.91260000
H        1.71750000      -3.25770000      -3.12150000
H        2.56050000      -1.61290000      -2.90670000
H       -0.00610000      -3.92420000      -1.37350000
