18
Properties=species:S:1:pos:R:3 gdb_65688=T pbc="F F F"
C        0.02750000       1.59970000      -0.10410000
C       -0.02450000       0.07320000      -0.06560000
C       -1.45510000      -0.45310000       0.17080000
C       -2.00730000      -0.04780000       1.51950000
O       -2.99010000       0.62640000       1.68930000
C        0.73390000      -0.63960000      -1.23320000
C        1.72880000      -1.12560000      -0.15370000
O        2.75350000      -1.74980000      -0.13690000
N        0.97770000      -0.53670000       0.83930000
H        1.04770000       1.94480000      -0.29380000
H       -0.62370000       1.98810000      -0.89340000
H       -0.31070000       2.03450000       0.84250000
H       -2.13050000      -0.08770000      -0.60810000
H       -1.42890000      -1.54980000       0.13610000
H       -1.41850000      -0.42630000       2.38780000
H        0.18460000      -1.43590000      -1.73870000
H        1.17540000       0.03010000      -1.97330000
H        1.21170000      -0.34290000       1.80300000
