17
Properties=species:S:1:pos:R:3 gdb_10054=T pbc="F F F"
C        0.28680000       1.23310000       0.31580000
C       -0.07100000      -0.16950000      -0.18560000
N        0.57490000      -0.52650000      -1.44100000
C        2.01400000      -0.78120000      -1.46740000
C        2.42080000      -1.86250000      -0.57190000
C        2.75920000      -2.73960000       0.17630000
C       -0.12850000      -0.64370000      -2.60480000
O        0.33940000      -0.92390000      -3.68860000
H        1.35720000       1.32730000       0.52090000
H        0.01050000       1.99450000      -0.41980000
H       -0.24660000       1.44360000       1.24780000
H        0.19290000      -0.91870000       0.57000000
H       -1.15150000      -0.24240000      -0.34500000
H        2.25260000      -1.02840000      -2.50630000
H        2.56670000       0.13260000      -1.21320000
H        3.06490000      -3.52480000       0.82300000
H       -1.20700000      -0.44740000      -2.44940000
