17
Properties=species:S:1:pos:R:3 gdb_42372=T pbc="F F F"
O        0.53840000       0.25760000       1.52950000
C       -0.05250000       0.94600000       0.74080000
C        0.62810000       1.50620000      -0.52500000
C        2.02660000       1.11930000      -0.65360000
N        3.13640000       0.82620000      -0.77590000
C       -1.52180000       1.32510000       0.92150000
C       -2.39630000       0.90020000      -0.24240000
C       -3.68040000       1.58350000      -0.52340000
N       -2.53880000       1.74430000      -1.44470000
H        0.06530000       1.18080000      -1.40830000
H        0.55150000       2.60110000      -0.50990000
H       -1.85330000       0.85290000       1.85080000
H       -1.59400000       2.41400000       1.05320000
H       -2.33260000      -0.16000000      -0.48130000
H       -4.51810000       1.02090000      -0.92380000
H       -3.95830000       2.42360000       0.10780000
H       -2.11040000       2.65380000      -1.28430000
