18
Properties=species:S:1:pos:R:3 gdb_120365=T pbc="F F F"
C       -0.77360000       0.80680000      -0.97110000
O       -0.01650000       0.22400000       0.07600000
C       -0.74410000      -0.56060000       0.98520000
C       -0.91140000      -2.04370000       0.55330000
N       -0.83560000      -2.93160000       1.73070000
C       -1.87420000      -3.66860000       1.69130000
N       -2.72420000      -3.45880000       0.61330000
C       -2.22220000      -2.40680000      -0.15460000
N       -2.70700000      -1.85770000      -1.19270000
H       -0.08130000       1.42850000      -1.54480000
H       -1.23140000       0.05470000      -1.62290000
H       -1.57500000       1.44710000      -0.57050000
H       -0.16400000      -0.58140000       1.91200000
H       -1.72740000      -0.11610000       1.20090000
H       -0.06520000      -2.26500000      -0.10830000
H       -2.11680000      -4.43110000       2.42480000
H       -3.62410000      -3.89000000       0.48240000
H       -3.59000000      -2.28230000      -1.47920000
