14
Properties=species:S:1:pos:R:3 gdb_131915=T pbc="F F F"
O       -0.05640000      -0.00600000       0.00370000
N       -0.02170000       1.21780000       0.00680000
O        1.00300000       1.88790000       0.00190000
C       -1.30830000       1.93760000       0.01730000
C       -1.29890000       3.32780000       0.02080000
C       -2.51640000       3.99950000       0.03070000
C       -3.71210000       3.28220000       0.03680000
C       -3.69760000       1.88790000       0.03310000
C       -2.48810000       1.20200000       0.02320000
H       -0.35250000       3.85100000       0.01590000
H       -2.53070000       5.08370000       0.03360000
H       -4.65890000       3.81180000       0.04450000
H       -4.62890000       1.33270000       0.03780000
H       -2.43860000       0.12170000       0.02010000
