19
Properties=species:S:1:pos:R:3 gdb_120467=T pbc="F F F"
C        0.63930000       1.45540000       0.20760000
O        0.79450000       0.05530000       0.21260000
C       -0.19680000      -0.60220000       0.96970000
C        0.07620000      -2.09140000       0.92100000
C        1.28580000      -2.69850000       1.70290000
C        0.38560000      -3.91270000       2.13820000
O        0.45090000      -4.45870000       3.41850000
C       -0.79200000      -2.99400000       1.80800000
O       -1.84750000      -2.84070000       2.36090000
H        0.70310000       1.87700000       1.22320000
H        1.44730000       1.87120000      -0.39890000
H       -0.32580000       1.75800000      -0.22840000
H       -0.18880000      -0.24890000       2.01510000
H       -1.20260000      -0.39280000       0.56890000
H        0.07530000      -2.43590000      -0.11870000
H        2.18000000      -2.93780000       1.12900000
H        1.54940000      -2.08350000       2.56700000
H        0.48330000      -4.71580000       1.39610000
H       -0.25030000      -4.04940000       3.94070000
