17
Properties=species:S:1:pos:R:3 gdb_79074=T pbc="F F F"
C       -0.10860000       1.56700000      -0.03460000
C        0.03350000       0.08140000       0.02090000
C        0.49130000      -0.94180000      -0.95560000
C        1.32970000      -1.65240000       0.10670000
O        2.65660000      -1.20130000      -0.04520000
C        0.50970000      -0.85390000       1.18850000
N       -0.63850000      -1.70010000       1.54100000
C       -1.35450000      -1.70030000       0.48980000
N       -0.96450000      -0.82690000      -0.58360000
H        0.85660000       2.05130000       0.14500000
H       -0.47370000       1.87620000      -1.01780000
H       -0.81630000       1.92380000       0.72170000
H        0.72630000      -0.87510000      -2.01110000
H        1.26800000      -2.74570000       0.18790000
H        3.16510000      -1.52660000       0.70500000
H        1.05740000      -0.46320000       2.04460000
H       -2.25280000      -2.29610000       0.36500000
