15
Properties=species:S:1:pos:R:3 gdb_28554=T pbc="F F F"
C       -0.05440000       1.50940000       0.06840000
C       -0.01690000       0.02530000      -0.04320000
C       -0.03730000      -0.81640000      -1.10380000
N        0.01650000      -2.16280000      -0.73170000
C        0.06990000      -2.15170000       0.55680000
O        0.13300000      -3.20230000       1.35890000
N        0.05450000      -0.83780000       1.08080000
C        0.10130000      -0.52510000       2.41400000
O        0.16300000      -1.36160000       3.29730000
H        0.84040000       1.91940000       0.55350000
H       -0.10850000       1.93790000      -0.93500000
H       -0.92740000       1.86930000       0.62730000
H       -0.08860000      -0.54210000      -2.14680000
H        0.16180000      -2.86800000       2.28060000
H        0.07990000       0.55540000       2.61870000
