21
Properties=species:S:1:pos:R:3 gdb_113861=T pbc="F F F"
O       -0.11730000       1.28920000      -0.73900000
C        0.01680000       0.06800000      -0.01490000
C       -1.35100000      -0.55910000       0.06820000
C       -1.87560000      -1.42530000      -1.05350000
C       -1.56560000      -2.03920000       0.28760000
C       -0.45530000      -3.04750000       0.45660000
C       -0.74850000      -4.50010000       0.00430000
C        0.49400000      -4.32410000      -0.88750000
O        0.61990000      -2.93550000      -0.51170000
H        0.75480000       1.69000000      -0.80020000
H        0.71820000      -0.61730000      -0.50560000
H        0.39580000       0.26140000       1.00280000
H       -2.08170000       0.08930000       0.54520000
H       -2.90970000      -1.31730000      -1.36080000
H       -1.17930000      -1.64450000      -1.85570000
H       -2.41750000      -2.28910000       0.91780000
H       -0.04780000      -2.99190000       1.47690000
H       -0.69030000      -5.26960000       0.77510000
H       -1.68580000      -4.60160000      -0.54570000
H        1.37320000      -4.90530000      -0.58160000
H        0.34720000      -4.44320000      -1.96680000
