16
Properties=species:S:1:pos:R:3 gdb_44577=T pbc="F F F"
O       -0.14060000       0.08090000       0.37280000
C       -0.06440000       1.25400000       0.13600000
N       -1.00780000       2.21670000      -0.16120000
C       -0.09170000       3.36390000      -0.13210000
C        0.00480000       4.19810000       1.13560000
C       -0.12920000       3.46780000       2.46330000
C        1.22680000       3.68710000       1.86660000
O        1.84150000       2.64300000       1.14860000
C        1.07490000       2.32750000       0.01460000
H       -2.01630000       2.17770000      -0.11590000
H       -0.12230000       3.97650000      -1.03510000
H       -0.22450000       5.25500000       1.08050000
H       -0.39480000       4.06750000       3.32720000
H       -0.54100000       2.46480000       2.46750000
H        1.95460000       4.32780000       2.35100000
H        1.73400000       2.16460000      -0.84180000
