17
Properties=species:S:1:pos:R:3 gdb_127328=T pbc="F F F"
C       -0.01390000       1.42000000       0.08770000
N       -0.00080000      -0.02910000      -0.00040000
C       -0.04350000      -0.71310000      -1.16910000
N       -0.03320000      -1.99710000      -1.28270000
C        0.02690000      -2.74120000      -0.09780000
N        0.04340000      -4.02170000      -0.05060000
C        0.07340000      -1.97300000       1.16590000
C        0.13950000      -2.71090000       2.46400000
N        0.05970000      -0.68000000       1.20130000
H        0.89360000       1.77720000       0.58260000
H       -0.06340000       1.83750000      -0.91930000
H       -0.88210000       1.75640000       0.66130000
H       -0.08970000      -0.09190000      -2.06270000
H        0.00580000      -4.38480000      -1.00590000
H        1.02080000      -3.35970000       2.47940000
H        0.17020000      -2.01100000       3.30020000
H       -0.72390000      -3.37700000       2.55830000
