24
Properties=species:S:1:pos:R:3 gdb_6106=T pbc="F F F"
C        0.11620000       1.47330000      -0.24040000
C       -0.03180000      -0.02900000       0.03030000
C        0.67950000      -0.44360000       1.32380000
C       -1.50400000      -0.44010000       0.07960000
O       -2.10090000      -0.15490000      -1.16820000
C       -3.43640000      -0.61630000      -1.33270000
C       -4.44150000       0.23650000      -0.55140000
C       -3.71490000      -0.59620000      -2.83220000
H        1.16970000       1.75180000      -0.34680000
H       -0.41210000       1.75540000      -1.15380000
H       -0.30100000       2.06060000       0.58720000
H        0.42030000      -0.57540000      -0.80820000
H        0.24540000       0.06410000       2.19360000
H        0.60850000      -1.52290000       1.49720000
H        1.74120000      -0.18020000       1.28630000
H       -1.58900000      -1.51810000       0.30130000
H       -2.00850000       0.09970000       0.89890000
H       -3.49760000      -1.65730000      -0.97030000
H       -4.38880000       1.27920000      -0.88160000
H       -5.46050000      -0.12770000      -0.71690000
H       -4.25040000       0.20710000       0.52490000
H       -2.98430000      -1.21130000      -3.36400000
H       -4.71780000      -0.97740000      -3.04650000
H       -3.64420000       0.42670000      -3.21580000
