13
Properties=species:S:1:pos:R:3 gdb_21932=T pbc="F F F"
O        0.36770000       0.89650000      -0.77870000
C       -0.01390000       0.12280000       0.32340000
C       -1.41800000      -0.42120000       0.21290000
N       -1.88440000      -1.17860000       1.21880000
C       -3.11950000      -1.61880000       1.05230000
C       -3.84820000      -1.29670000      -0.09820000
N       -3.32890000      -0.54210000      -1.05800000
N       -2.08570000      -0.09760000      -0.89270000
H       -0.38960000       0.90420000      -1.38280000
H        0.66580000      -0.73350000       0.45870000
H        0.04500000       0.70740000       1.25510000
H       -3.54650000      -2.23760000       1.83820000
H       -4.86290000      -1.64680000      -0.25600000
