17
Properties=species:S:1:pos:R:3 gdb_111951=T pbc="F F F"
O       -0.01720000       1.39150000      -0.20910000
C        0.05250000      -0.01790000      -0.04770000
C       -1.38840000      -0.52220000       0.09740000
C       -2.21620000      -0.21620000      -1.13270000
C       -2.51240000      -1.30100000      -1.86500000
C       -1.91810000      -2.48700000      -1.22580000
O       -1.71740000      -3.59600000      -1.67250000
C       -1.47900000      -2.06220000       0.18400000
O       -0.29770000      -2.71470000       0.57460000
H        0.88020000       1.73300000      -0.25800000
H        0.52680000      -0.50300000      -0.91330000
H        0.62310000      -0.30230000       0.84540000
H       -1.81490000      -0.02780000       0.97740000
H       -2.48770000       0.80290000      -1.38180000
H       -3.03880000      -1.32910000      -2.81020000
H       -2.30990000      -2.32220000       0.86290000
H       -0.27110000      -3.52860000       0.04870000
