20
Properties=species:S:1:pos:R:3 gdb_67291=T pbc="F F F"
C       -0.01950000       1.54630000       0.00850000
C       -0.04340000       0.04160000      -0.00400000
C        0.79120000      -0.96240000      -0.87690000
C        1.94610000      -1.05090000       0.12410000
C        0.66560000      -0.97570000       0.95970000
N       -0.08210000      -1.92470000      -0.02090000
C       -1.20370000      -0.92680000      -0.09040000
C       -2.52290000      -1.05320000       0.58490000
C       -2.41860000      -1.04220000      -0.94070000
H        1.00520000       1.92670000       0.08090000
H       -0.46370000       1.95410000      -0.90630000
H       -0.58380000       1.94130000       0.86050000
H        0.79420000      -1.04890000      -1.96490000
H        2.48440000      -2.00170000       0.15410000
H        2.62780000      -0.19850000       0.17690000
H        0.52050000      -1.07780000       2.03670000
H       -2.75820000      -1.99970000       1.06090000
H       -2.95010000      -0.18310000       1.07380000
H       -2.77610000      -0.16470000      -1.47060000
H       -2.58600000      -1.98140000      -1.45780000
