18
Properties=species:S:1:pos:R:3 gdb_33253=T pbc="F F F"
O        0.37760000       0.15780000      -0.81910000
C       -0.46970000      -0.37930000       0.17270000
C       -1.71230000       0.49870000       0.36590000
N       -2.40740000       0.68910000      -0.90360000
C       -3.41220000      -0.20230000      -1.27450000
C       -3.63310000      -1.50220000      -0.87900000
N       -4.75490000      -1.89820000      -1.59490000
C       -5.14230000      -0.84880000      -2.35770000
N       -4.35650000       0.19370000      -2.19080000
H       -0.21310000       0.39660000      -1.54710000
H       -0.77240000      -1.41000000      -0.07650000
H        0.10100000      -0.42300000       1.10690000
H       -2.37520000       0.06560000       1.13150000
H       -1.38450000       1.48140000       0.71760000
H       -2.69850000       1.63840000      -1.08630000
H       -3.12460000      -2.16550000      -0.20290000
H       -5.19390000      -2.80160000      -1.55050000
H       -5.99990000      -0.89110000      -3.01210000
