19
Properties=species:S:1:pos:R:3 gdb_22614=T pbc="F F F"
C       -0.02350000       1.63310000      -0.05600000
C        0.03670000       0.11140000      -0.00480000
C        0.71360000      -0.65020000      -1.16940000
N        2.12030000      -0.20330000      -1.19720000
C        1.71100000      -1.29560000      -0.24800000
C        2.37490000      -2.63550000      -0.23720000
C        1.07120000      -0.57810000       0.89840000
N        1.26050000      -0.71980000       2.14160000
O        0.35730000       0.07050000       2.88390000
H        0.95290000       2.04130000      -0.32630000
H       -0.75730000       1.96680000      -0.79770000
H       -0.31330000       2.03380000       0.91870000
H       -0.94970000      -0.31350000       0.21630000
H        0.23460000      -1.06480000      -2.04820000
H        2.57040000      -0.67360000      -1.98390000
H        2.49520000      -3.02070000      -1.25540000
H        3.36670000      -2.57840000       0.22400000
H        1.78310000      -3.35570000       0.33580000
H        0.61530000      -0.12750000       3.79030000
