23
Properties=species:S:1:pos:R:3 gdb_122420=T pbc="F F F"
C       -0.52870000       0.91590000      -0.05700000
C        0.07400000      -0.48770000       0.04090000
C        0.74050000      -0.73930000       1.38640000
O        1.30000000      -2.04210000       1.38290000
C        1.97600000      -2.38400000       2.58370000
C        1.00450000      -2.88330000       3.69410000
C        1.18320000      -4.32380000       3.12460000
O        0.17800000      -4.70650000       2.21260000
C        2.49650000      -3.83190000       2.44610000
H        0.23780000       1.68870000       0.06780000
H       -1.00160000       1.07250000      -1.03060000
H       -1.29140000       1.07830000       0.71240000
H       -0.70360000      -1.24510000      -0.11330000
H        0.81860000      -0.63900000      -0.74890000
H        1.53600000       0.00340000       1.56580000
H        0.00880000      -0.63110000       2.20330000
H        2.69360000      -1.59590000       2.84870000
H        1.43520000      -2.77140000       4.69360000
H       -0.01350000      -2.48580000       3.69160000
H        1.26770000      -5.13810000       3.84770000
H        0.12850000      -4.00580000       1.54910000
H        2.68490000      -4.18240000       1.42880000
H        3.37890000      -4.00560000       3.06750000
