20
Properties=species:S:1:pos:R:3 gdb_114712=T pbc="F F F"
C        0.07700000       1.34530000      -0.37100000
C        0.23420000      -0.15520000      -0.11000000
C        0.74330000      -0.48790000       1.31000000
C        0.70240000      -1.98240000       1.71610000
N        2.08630000      -2.47240000       1.97500000
C        2.94170000      -2.37560000       0.80460000
C        2.99370000      -1.31470000       1.85960000
C        2.21020000      -0.07740000       1.54880000
O        2.64550000       1.04830000       1.53930000
H        1.02050000       1.87360000      -0.21790000
H       -0.26330000       1.52680000      -1.39510000
H       -0.66150000       1.78350000       0.30960000
H       -0.73210000      -0.65660000      -0.24610000
H        0.90790000      -0.59300000      -0.85770000
H        0.14950000       0.10040000       2.01930000
H        0.13740000      -2.11820000       2.64210000
H        0.23950000      -2.61460000       0.95180000
H        3.75540000      -3.09350000       0.75940000
H        2.49690000      -2.13190000      -0.15770000
H        3.84440000      -1.23980000       2.52820000
