18
Properties=species:S:1:pos:R:3 gdb_48899=T pbc="F F F"
O       -0.09930000       0.02130000       0.09660000
C        0.01830000       1.22250000       0.13410000
C        1.31450000       1.94750000       0.04530000
C        2.66210000       1.28910000      -0.29050000
N        3.11380000       2.63840000      -0.77490000
C        2.77150000       3.64690000       0.34990000
C        1.85090000       4.37110000      -0.65380000
C        1.67120000       2.94490000      -1.16230000
C        1.74890000       2.86650000       1.21230000
H       -0.87750000       1.88300000       0.21910000
H        3.24360000       0.84370000       0.52170000
H        2.62070000       0.60330000      -1.13970000
H        3.61030000       4.13410000       0.84410000
H        0.99760000       4.93290000      -0.26880000
H        2.41050000       4.96130000      -1.38210000
H        1.33300000       2.67130000      -2.16220000
H        0.95870000       3.51070000       1.60750000
H        2.18150000       2.29460000       2.03660000
