15
Properties=species:S:1:pos:R:3 gdb_128238=T pbc="F F F"
C        0.11240000       1.45240000       0.18870000
N       -0.04800000       0.05750000      -0.21890000
C       -1.20520000      -0.66580000      -0.08620000
C       -1.19060000      -2.02200000       0.08820000
N       -2.36850000      -2.71070000       0.12340000
N       -3.57880000      -2.15970000       0.04170000
N       -3.66420000      -0.89410000      -0.10530000
C       -2.53810000      -0.04450000      -0.21860000
O       -2.71510000       1.14430000      -0.42780000
H        1.01540000       1.84570000      -0.28530000
H       -0.75440000       2.01970000      -0.14090000
H        0.21530000       1.56100000       1.27810000
H        0.78900000      -0.49650000      -0.10050000
H       -0.28640000      -2.61240000       0.18620000
H       -2.38870000      -3.71200000       0.23870000
