17
Properties=species:S:1:pos:R:3 gdb_49999=T pbc="F F F"
O       -0.65550000       0.77250000       0.78800000
C        0.15690000       1.01750000      -0.06790000
C        1.23870000       2.02990000       0.08090000
O        2.38100000       1.83820000      -0.78130000
C        1.55210000       2.93930000      -1.04860000
C        0.89830000       3.14680000      -2.43120000
C        1.40060000       4.60070000      -2.38870000
C        0.86970000       5.29730000      -1.17270000
C        2.04650000       4.36610000      -1.01270000
H        0.15830000       0.50480000      -1.05540000
H        1.45560000       2.35330000       1.09740000
H        1.40970000       2.53480000      -3.17820000
H       -0.18270000       3.00240000      -2.52060000
H        1.80810000       5.13990000      -3.23370000
H        1.11000000       6.35230000      -1.09060000
H       -0.10140000       5.02970000      -0.76250000
H        3.00560000       4.68400000      -0.62460000
