16
Properties=species:S:1:pos:R:3 gdb_68563=T pbc="F F F"
O        0.06870000       1.39870000      -0.08680000
C        0.03860000       0.02040000      -0.02800000
C        0.35400000      -0.80670000      -1.30900000
C       -0.33220000      -1.93870000      -0.46680000
C        0.63150000      -2.02380000       0.72700000
C        0.87450000      -0.74580000       1.01810000
C       -1.32220000      -0.81380000       0.01830000
C       -2.04040000      -0.95380000       1.27250000
N       -2.61990000      -1.03550000       2.27020000
H       -0.08520000       1.75450000       0.79570000
H       -0.22610000      -0.48980000      -2.18050000
H        1.40690000      -0.94370000      -1.55660000
H       -0.70860000      -2.85300000      -0.91760000
H        0.99480000      -2.92920000       1.19030000
H        1.49580000      -0.29440000       1.77860000
H       -2.00760000      -0.49410000      -0.77170000
