17
Properties=species:S:1:pos:R:3 gdb_74735=T pbc="F F F"
C        0.05860000       1.43090000       0.08590000
C        0.00880000      -0.05210000      -0.02970000
C        0.02800000      -0.86980000      -1.08560000
C       -0.03400000      -2.22830000      -0.42370000
O        0.97080000      -2.08430000       0.69750000
C       -0.04990000      -1.05300000       1.14420000
C       -1.06130000      -0.65190000       2.24940000
O       -2.11830000      -1.12080000       1.31290000
C       -1.07930000      -2.03560000       0.76840000
H        0.89820000       1.75660000       0.71230000
H        0.16960000       1.89540000      -0.89750000
H       -0.85540000       1.83020000       0.54160000
H        0.08300000      -0.66050000      -2.14360000
H        0.08900000      -3.15440000      -0.98460000
H       -1.03950000      -1.26260000       3.15710000
H       -1.17810000       0.40920000       2.48360000
H       -1.10600000      -2.95110000       1.36550000
