17
Properties=species:S:1:pos:R:3 gdb_110821=T pbc="F F F"
O       -0.14380000       1.51290000      -0.27980000
C       -0.02250000       0.17330000       0.18260000
C       -1.35360000      -0.54430000       0.12540000
C       -1.86870000      -1.25320000      -1.08910000
O       -0.80620000      -1.89200000      -1.81190000
C       -0.58960000      -2.81330000      -0.69720000
C        0.79430000      -2.97980000      -0.28750000
C        1.93050000      -3.16760000       0.05760000
C       -1.59350000      -2.04380000       0.17190000
H       -0.34490000       1.47160000      -1.22050000
H        0.73660000      -0.37890000      -0.38090000
H        0.32020000       0.24520000       1.21970000
H       -2.14550000      -0.01360000       0.65220000
H       -2.78100000      -1.03440000      -1.63150000
H       -1.00560000      -3.79050000      -0.97430000
H        2.93630000      -3.31800000       0.36490000
H       -2.26510000      -2.51110000       0.87880000
