14
Properties=species:S:1:pos:R:3 gdb_5039=T pbc="F F F"
C       -0.00720000       1.44830000       0.00380000
N       -0.00500000      -0.01110000      -0.01830000
C       -0.14440000      -0.70610000      -1.17440000
N       -0.15370000      -1.99960000      -1.28180000
C       -0.00750000      -2.69040000      -0.10700000
C        0.14000000      -2.10490000       1.11060000
C        0.15090000      -0.66680000       1.23800000
O        0.27290000      -0.00460000       2.25310000
H        0.93130000       1.81440000       0.42530000
H       -0.13220000       1.82160000      -1.01350000
H       -0.82010000       1.80850000       0.63790000
H       -0.25640000      -0.10010000      -2.07080000
H       -0.01590000      -3.77260000      -0.20380000
H        0.25340000      -2.68140000       2.01980000
