16
Properties=species:S:1:pos:R:3 gdb_44643=T pbc="F F F"
O       -0.00330000       0.00640000       0.00040000
C        0.01770000       1.20310000      -0.00250000
N       -0.98880000       2.15860000      -0.00570000
C       -0.10390000       3.31870000      -0.00640000
C        0.37530000       3.88380000       1.37950000
C       -0.11650000       3.14690000       2.63290000
O        0.91790000       2.13920000       2.49700000
C        1.51650000       2.83750000       1.38770000
C        1.09600000       2.31650000      -0.02610000
H       -1.97750000       2.06550000       0.17970000
H       -0.29130000       4.04580000      -0.79730000
H        0.53600000       4.95960000       1.42580000
H        0.00450000       3.71460000       3.56320000
H       -1.12180000       2.71250000       2.59800000
H        2.57590000       3.05470000       1.54300000
H        1.85100000       2.28980000      -0.80940000
