17
Properties=species:S:1:pos:R:3 gdb_97724=T pbc="F F F"
O        0.06930000       1.33220000       0.55920000
C       -0.02640000       0.14700000      -0.22350000
C       -1.37720000      -0.38910000      -0.15190000
C       -2.48820000      -0.85630000      -0.10430000
C       -3.80410000      -1.38140000      -0.06480000
C       -4.52560000      -1.79550000       1.21840000
C       -4.34530000      -2.80270000       0.13940000
O       -5.33170000      -2.65460000      -0.87460000
C       -4.84140000      -1.32510000      -1.19290000
H        0.97470000       1.65160000       0.48490000
H        0.22310000       0.34600000      -1.27890000
H        0.68280000      -0.62020000       0.12920000
H       -3.86640000      -1.89260000       2.07430000
H       -5.51890000      -1.40770000       1.42840000
H       -3.84080000      -3.75750000       0.23110000
H       -5.62280000      -0.56020000      -1.12140000
H       -4.38650000      -1.31160000      -2.18830000
