19
Properties=species:S:1:pos:R:3 gdb_2339=T pbc="F F F"
C       -0.01520000       1.47000000      -0.05490000
C       -0.18930000      -0.01650000      -0.31450000
O        1.04750000      -0.53820000      -0.77350000
C        1.00660000      -1.90220000      -1.04570000
C        0.46750000      -2.37540000      -2.37690000
C        1.95630000      -2.42390000      -2.08230000
C        2.90910000      -1.49250000      -2.79810000
H        0.76080000       1.64040000       0.69680000
H        0.27860000       1.98800000      -0.97240000
H       -0.95130000       1.90660000       0.30590000
H       -0.49780000      -0.53710000       0.60720000
H       -0.97580000      -0.19510000      -1.06420000
H        0.80840000      -2.52290000      -0.16970000
H       -0.09900000      -3.29940000      -2.42320000
H        0.13470000      -1.60320000      -3.06330000
H        2.36020000      -3.41160000      -1.87490000
H        2.47150000      -0.49770000      -2.90670000
H        3.84520000      -1.38160000      -2.23990000
H        3.15530000      -1.87400000      -3.79480000
