15
Properties=species:S:1:pos:R:3 gdb_23195=T pbc="F F F"
O       -0.24690000       1.42010000       0.09130000
N        0.01680000       0.04870000      -0.04930000
C       -1.06140000      -0.61130000      -0.12610000
C       -2.53980000      -0.35910000       0.07440000
N       -2.78710000      -1.85200000       0.17530000
C       -2.39090000      -2.40840000      -1.10290000
C       -1.27410000      -2.07710000      -0.16150000
C       -0.46170000      -3.13170000       0.49870000
O       -0.78210000      -4.29380000       0.53080000
H        0.63830000       1.79510000       0.15450000
H       -2.76440000       0.13960000       1.01980000
H       -3.09250000       0.12300000      -0.73740000
H       -2.59850000      -3.47050000      -1.19070000
H       -2.50560000      -1.81820000      -2.01020000
H        0.47360000      -2.76280000       0.96780000
