16
Properties=species:S:1:pos:R:3 gdb_98057=T pbc="F F F"
C        0.05360000       1.48780000      -0.08160000
C       -0.17390000      -0.01520000      -0.22210000
C       -1.42610000      -0.49990000       0.46400000
O       -2.21860000       0.19430000       1.05290000
C       -1.67520000      -2.01750000       0.49420000
O       -0.98740000      -2.76200000       1.15230000
C       -2.87490000      -2.51030000      -0.33290000
N       -3.23110000      -3.77740000      -0.03380000
O       -3.37080000      -1.79110000      -1.17760000
H        0.95840000       1.78980000      -0.61530000
H       -0.79250000       2.04820000      -0.48680000
H        0.16100000       1.76930000       0.96900000
H       -0.25730000      -0.31480000      -1.27730000
H        0.66480000      -0.60110000       0.17780000
H       -2.68080000      -4.29580000       0.63200000
H       -3.95690000      -4.23410000      -0.56040000
