17
Properties=species:S:1:pos:R:3 gdb_41259=T pbc="F F F"
C       -0.03460000       1.47660000      -0.05090000
C        1.51720000       1.53630000       0.09010000
O        2.00210000       1.38090000       1.46220000
C        1.66200000       0.00770000       1.38490000
C        2.02350000      -1.24240000       2.15460000
O        0.72770000      -1.78930000       1.75570000
C        0.19030000      -0.46790000       1.45830000
C       -0.00570000      -0.08860000      -0.01200000
C        1.56150000       0.00720000      -0.16040000
H       -0.62920000       2.00140000       0.70260000
H       -0.32160000       1.83000000      -1.04540000
H        2.06750000       2.31440000      -0.43790000
H        2.86070000      -1.85170000       1.79960000
H        2.08550000      -1.11340000       3.24410000
H       -0.53890000      -0.14520000       2.20820000
H       -0.67830000      -0.64540000      -0.66350000
H        2.22430000      -0.52770000      -0.83500000
