19
Properties=species:S:1:pos:R:3 gdb_81948=T pbc="F F F"
C        0.29460000       1.64100000       0.00180000
C        0.08220000       0.12610000      -0.02060000
C        0.71270000      -0.61000000      -1.18290000
O        2.14780000      -0.61300000      -1.12310000
C        1.44490000      -1.79510000      -0.70890000
C        1.34390000      -1.91620000       0.79630000
C        2.65820000      -2.18460000       1.53200000
C        0.70290000      -0.57370000       1.20700000
O        0.69570000      -0.13070000       2.32540000
H        1.35460000       1.87360000      -0.13240000
H       -0.27130000       2.13280000      -0.79460000
H       -0.02670000       2.04570000       0.96450000
H       -0.99600000      -0.09580000      -0.00060000
H        0.28850000      -0.54630000      -2.18170000
H        1.60200000      -2.67240000      -1.33130000
H        0.61530000      -2.70400000       1.04270000
H        3.42270000      -1.47380000       1.20660000
H        2.51170000      -2.06290000       2.60800000
H        3.02190000      -3.19770000       1.33760000
