24
Properties=species:S:1:pos:R:3 gdb_105256=T pbc="F F F"
C       -1.15420000       0.95960000      -3.31590000
C       -0.43870000       0.91620000      -1.95850000
C        0.70840000      -0.08690000      -1.90230000
C        2.04630000       0.32250000      -2.43690000
N        1.85110000       0.12230000      -1.00560000
C        1.93420000       1.27830000      -0.12800000
C        0.27610000      -1.52920000      -2.01010000
C        1.15310000      -2.65120000      -1.52560000
C       -0.10030000      -2.29740000      -0.76500000
H       -0.45420000       1.20440000      -4.12170000
H       -1.62360000       0.00260000      -3.56160000
H       -1.94200000       1.71930000      -3.31280000
H       -0.06640000       1.91940000      -1.73180000
H       -1.16340000       0.66690000      -1.17270000
H        2.68710000      -0.39920000      -2.93810000
H        2.15100000       1.34860000      -2.79130000
H        1.66040000       2.23670000      -0.59540000
H        1.29030000       1.12570000       0.74430000
H        2.96610000       1.36840000       0.22730000
H       -0.31650000      -1.74330000      -2.89490000
H        1.16740000      -3.57090000      -2.10020000
H        2.09480000      -2.37170000      -1.06880000
H        0.03200000      -1.79190000       0.18570000
H       -0.94820000      -2.97240000      -0.80470000
