18
Properties=species:S:1:pos:R:3 gdb_106455=T pbc="F F F"
O       -0.16970000       1.39590000       0.13930000
C       -0.04930000      -0.01180000       0.00500000
C       -1.42770000      -0.59810000       0.02070000
C       -2.67000000      -0.24330000      -0.85720000
C       -3.13750000      -1.28340000       0.20590000
C       -1.84380000      -2.09310000      -0.09180000
N       -2.33310000      -0.54540000       1.24320000
C       -2.77300000       0.58540000       1.89440000
O       -3.92270000       0.78040000       2.22550000
H        0.71320000       1.77390000       0.19210000
H        0.43850000      -0.29110000      -0.94250000
H        0.53570000      -0.45220000       0.82690000
H       -3.06390000       0.76700000      -0.74790000
H       -2.64760000      -0.57240000      -1.89970000
H       -4.14040000      -1.64500000       0.41650000
H       -1.76750000      -2.54390000      -1.08240000
H       -1.49330000      -2.74820000       0.70650000
H       -1.93750000       1.25810000       2.16260000
