16
Properties=species:S:1:pos:R:3 gdb_7311=T pbc="F F F"
C        1.07750000       1.67710000      -0.47790000
C        0.28460000       0.43960000      -0.07700000
O        0.50160000      -0.62330000      -1.01800000
C       -0.46550000      -0.88960000      -1.91960000
O       -0.35570000      -1.73510000      -2.75330000
C        0.64410000      -0.05140000       1.33970000
C        0.69950000      -1.54270000       1.57630000
O        0.84020000       0.76360000       2.20930000
H        2.13360000       1.42370000      -0.60430000
H        0.70270000       2.08670000      -1.41950000
H        0.99030000       2.43000000       0.30700000
H       -0.79100000       0.67600000      -0.04980000
H       -1.35830000      -0.24580000      -1.79030000
H       -0.24240000      -2.01710000       1.27930000
H        1.47810000      -1.99450000       0.95410000
H        0.89780000      -1.73200000       2.63140000
