18
Properties=species:S:1:pos:R:3 gdb_32766=T pbc="F F F"
C       -0.15390000       1.37220000       0.31780000
O       -0.12870000      -0.03340000       0.42310000
C       -1.15460000      -0.65560000      -0.34310000
C       -1.12270000      -2.11620000      -0.07940000
C       -0.97430000      -2.83660000       1.07260000
N       -0.84920000      -2.32740000       2.37080000
C       -1.04200000      -4.21830000       0.68750000
C       -1.22510000      -4.22620000      -0.65910000
O       -1.27380000      -2.96660000      -1.14780000
H        0.65310000       1.76100000       0.94320000
H        0.00900000       1.70330000      -0.71950000
H       -1.11070000       1.79250000       0.66540000
H       -2.12630000      -0.20600000      -0.06770000
H       -1.00990000      -0.47520000      -1.41990000
H       -0.45580000      -1.39370000       2.35520000
H       -0.29410000      -2.92330000       2.97100000
H       -0.96420000      -5.07930000       1.33380000
H       -1.33340000      -5.01690000      -1.38330000
