20
Properties=species:S:1:pos:R:3 gdb_58387=T pbc="F F F"
C        0.32960000       1.51770000      -0.03200000
C        0.18440000      -0.00670000       0.04070000
C        0.83840000      -0.56170000       1.31250000
C       -1.31170000      -0.42920000      -0.03220000
N       -1.99770000       0.11690000      -1.20500000
C       -2.94120000       1.09330000      -1.11200000
O       -3.24180000       1.67940000      -0.09390000
C       -1.47410000      -1.88460000      -0.01480000
C       -1.59320000      -3.08030000      -0.04670000
H        1.38560000       1.79880000       0.02650000
H       -0.07500000       1.92000000      -0.96370000
H       -0.19680000       2.00240000       0.79710000
H        0.68690000      -0.45130000      -0.82940000
H        0.36050000      -0.14750000       2.20830000
H        0.76550000      -1.65080000       1.36330000
H        1.89740000      -0.28840000       1.34620000
H       -1.83090000       0.01000000       0.82820000
H       -1.88260000      -0.36230000      -2.08440000
H       -3.40670000       1.30760000      -2.09400000
H       -1.71100000      -4.13590000      -0.05160000
