12
Properties=species:S:1:pos:R:3 gdb_24925=T pbc="F F F"
N       -0.08060000       1.25180000       0.05980000
C       -0.02060000      -0.00450000       0.05610000
N       -1.14750000      -0.86300000       0.11440000
C       -0.64250000      -2.12690000      -0.13520000
C        0.69610000      -2.08010000      -0.14520000
O        1.14170000      -0.78600000      -0.02580000
N        1.24030000      -3.32440000      -0.03120000
C        0.18030000      -4.08130000       0.03110000
O       -1.03360000      -3.40970000       0.01240000
H        0.84400000       1.66880000      -0.00490000
H       -2.02230000      -0.49480000      -0.22710000
H        0.12070000      -5.15640000       0.02350000
