17
Properties=species:S:1:pos:R:3 gdb_77618=T pbc="F F F"
C        0.09350000       1.52880000      -0.02260000
C        0.04870000       0.04120000       0.08650000
O        0.52790000      -0.70690000      -1.03220000
C        1.21150000      -1.65720000      -0.17390000
C        0.66020000      -0.98260000       1.07580000
C        1.29000000      -0.80030000       2.33010000
N        1.77540000      -0.64390000       3.37140000
C       -0.88150000      -0.79340000       0.89150000
N       -1.66120000      -0.19180000       1.92660000
H        1.11090000       1.87370000      -0.22460000
H       -0.55020000       1.84790000      -0.84970000
H       -0.26680000       2.01350000       0.88790000
H        0.89400000      -2.68970000      -0.35930000
H        2.29730000      -1.57220000      -0.28560000
H       -1.39490000      -1.60120000       0.37350000
H       -1.83350000      -0.85840000       2.67380000
H       -1.18480000       0.59740000       2.35100000
