15
Properties=species:S:1:pos:R:3 gdb_131063=T pbc="F F F"
O        0.85070000       0.81780000       1.43530000
C        0.44240000       1.40150000       0.45170000
N        1.14750000       1.56460000      -0.69790000
C        2.51580000       1.07900000      -0.83650000
C        3.54180000       2.03580000      -0.29670000
N        4.37710000       2.62970000      -1.11640000
O        5.17950000       3.43630000      -0.31800000
C        4.79290000       3.29950000       0.96080000
C        3.75950000       2.42810000       1.05700000
H       -0.56720000       1.85180000       0.38940000
H        0.77330000       2.16630000      -1.41440000
H        2.57590000       0.13180000      -0.29450000
H        2.72080000       0.89440000      -1.89280000
H        5.34810000       3.88000000       1.68130000
H        3.21840000       2.09810000       1.92720000
