20
Properties=species:S:1:pos:R:3 gdb_83687=T pbc="F F F"
C        0.22890000       1.58870000       0.11310000
C        0.12000000       0.06790000       0.09910000
C        0.61610000      -0.71610000      -1.15610000
C        1.68290000      -0.07570000      -2.06420000
C        2.73350000      -0.61630000      -1.06240000
N        1.68800000      -1.43400000      -0.34720000
C        1.16220000      -0.78520000       0.89510000
C        2.17220000      -0.16840000       1.82690000
O        1.97430000       0.79690000       2.52180000
H        1.23620000       1.94150000      -0.12460000
H       -0.46120000       2.02280000      -0.61870000
H       -0.02130000       1.98180000       1.10090000
H       -0.90390000      -0.21100000       0.36300000
H       -0.13960000      -1.34230000      -1.63820000
H        1.73800000      -0.54990000      -3.04640000
H        1.63750000       1.00600000      -2.20370000
H        3.52700000      -1.23990000      -1.48290000
H        3.20510000       0.15710000      -0.44390000
H        0.66200000      -1.55390000       1.50520000
H        3.14110000      -0.71940000       1.86530000
