19
Properties=species:S:1:pos:R:3 gdb_63710=T pbc="F F F"
C       -0.04420000       1.55680000       0.09830000
C        0.01180000       0.03510000       0.01530000
C       -1.36620000      -0.57790000      -0.23160000
C        1.10060000      -0.57260000      -0.95740000
C        1.72740000      -1.29050000       0.24540000
N        2.12890000      -0.22050000       1.20350000
C        0.73220000      -0.67490000       1.18500000
C        2.32560000      -2.58220000       0.28240000
N        2.80940000      -3.63430000       0.30020000
H        0.94030000       1.96880000       0.33120000
H       -0.38220000       1.98290000      -0.85290000
H       -0.74680000       1.88070000       0.87450000
H       -1.77750000      -0.23130000      -1.18540000
H       -1.32090000      -1.67190000      -0.26170000
H       -2.06830000      -0.29180000       0.55970000
H        0.67270000      -1.25440000      -1.69400000
H        1.77010000       0.13710000      -1.44700000
H        2.59470000      -0.66940000       1.99250000
H        0.27480000      -1.11390000       2.06460000
