23
Properties=species:S:1:pos:R:3 gdb_111323=T pbc="F F F"
C       -0.02490000       1.60570000      -0.09210000
C        0.01680000       0.08970000       0.12560000
C       -1.36010000      -0.56040000       0.02300000
C       -2.06820000      -0.61080000      -1.34720000
C       -1.36700000      -1.53380000      -2.30810000
C       -2.23300000      -2.12940000      -1.23260000
C       -1.49570000      -2.10490000       0.09130000
C       -0.50910000      -3.11410000       0.60750000
C       -1.83570000      -2.90680000       1.30850000
H        0.97280000       2.04850000      -0.01240000
H       -0.41930000       1.84950000      -1.08440000
H       -0.66700000       2.09570000       0.64870000
H        0.69730000      -0.36810000      -0.60230000
H        0.44180000      -0.12720000       1.11500000
H       -2.02930000      -0.10480000       0.76350000
H       -2.79380000       0.11490000      -1.69390000
H       -1.78620000      -1.55250000      -3.30950000
H       -0.28870000      -1.66710000      -2.27720000
H       -3.10340000      -2.73620000      -1.45460000
H       -0.36570000      -4.02780000       0.03920000
H        0.38650000      -2.75200000       1.10240000
H       -1.83240000      -2.40540000       2.27190000
H       -2.58860000      -3.68360000       1.21600000
