22
Properties=species:S:1:pos:R:3 gdb_113807=T pbc="F F F"
C       -0.24500000       1.51230000      -0.10650000
C       -0.04920000       0.02220000       0.06670000
C        1.26230000      -0.62830000      -0.22240000
N        0.75690000      -0.55850000       1.14570000
C        1.43630000       0.29930000       2.07690000
C        0.82200000       0.47010000       3.44150000
C        2.09130000      -0.33310000       3.28440000
C        2.06790000      -1.82300000       3.49510000
O        2.14230000      -2.06840000       4.89700000
H        0.68700000       2.07150000       0.00490000
H       -0.63880000       1.72080000      -1.10690000
H       -0.96390000       1.90300000       0.62180000
H       -0.94790000      -0.56100000      -0.13200000
H        1.31770000      -1.61950000      -0.66580000
H        2.08720000       0.03220000      -0.49000000
H        1.95870000       1.16370000       1.66360000
H        0.86770000       1.44270000       3.91810000
H       -0.08640000      -0.09000000       3.63430000
H        3.00660000       0.14380000       3.62420000
H        1.15180000      -2.23940000       3.05690000
H        2.92210000      -2.28460000       2.97270000
H        2.14840000      -3.02130000       5.02740000
