23
Properties=species:S:1:pos:R:3 gdb_109163=T pbc="F F F"
C       -0.97710000       0.95270000      -0.00480000
C        0.14450000      -0.08440000       0.00560000
C        1.22220000       0.11090000      -1.09140000
C        2.43600000      -0.55090000      -0.48840000
C        2.29130000      -0.75730000       0.82110000
C        3.28760000      -1.38370000       1.74280000
O        4.45570000      -1.73980000       1.02380000
C        0.95930000      -0.22720000       1.33130000
C        1.13690000       1.07980000       2.12810000
H       -0.59550000       1.96940000       0.13420000
H       -1.50960000       0.93150000      -0.96190000
H       -1.71280000       0.76060000       0.78420000
H       -0.30510000      -1.06890000      -0.17550000
H        0.91960000      -0.32950000      -2.04890000
H        1.40920000       1.17710000      -1.29260000
H        3.32520000      -0.80500000      -1.05150000
H        3.52450000      -0.68380000       2.56360000
H        2.82760000      -2.26770000       2.22150000
H        5.07350000      -2.14190000       1.64060000
H        0.46830000      -0.95280000       1.99500000
H        1.61250000       1.85600000       1.51960000
H        0.17610000       1.46570000       2.48250000
H        1.76840000       0.91860000       3.00770000
