14
Properties=species:S:1:pos:R:3 gdb_5204=T pbc="F F F"
O        0.05220000      -0.12230000       0.26300000
C        0.07700000       0.96620000      -0.24150000
C        1.25260000       1.93310000      -0.08740000
N        1.31640000       2.90700000      -1.15130000
C        1.68790000       2.66880000      -2.46070000
C        1.53130000       3.86430000      -3.10990000
N        1.07100000       4.82940000      -2.24470000
C        0.95020000       4.22310000      -1.08790000
H       -0.76400000       1.36490000      -0.85140000
H        1.12550000       2.46330000       0.86390000
H        2.17980000       1.35690000      -0.01710000
H        2.02920000       1.69860000      -2.78310000
H        1.72760000       4.08620000      -4.14780000
H        0.61410000       4.67230000      -0.16410000
