16
Properties=species:S:1:pos:R:3 gdb_25635=T pbc="F F F"
C       -0.00190000       1.47650000       0.00590000
C       -0.00010000       0.02160000      -0.01500000
C       -0.00910000      -1.18670000      -0.03930000
C       -0.00200000      -2.59700000      -0.06230000
C        1.11710000      -3.39710000      -0.01700000
N        2.46200000      -3.09840000      -0.02370000
O        0.78500000      -4.70190000      -0.04220000
C       -0.59310000      -4.76600000      -0.10610000
C       -1.11450000      -3.52150000      -0.12780000
H        0.69570000       1.89130000      -0.73120000
H       -0.99740000       1.86940000      -0.22990000
H        0.28160000       1.87160000       0.98880000
H        2.63990000      -2.13540000       0.22790000
H        3.02990000      -3.74320000       0.51020000
H       -1.00610000      -5.75920000      -0.12610000
H       -2.15860000      -3.25640000      -0.17470000
