12
Properties=species:S:1:pos:R:3 gdb_4615=T pbc="F F F"
O       -0.00540000       1.38650000       0.00840000
C       -0.02230000       0.03080000       0.00110000
C       -1.19780000      -0.65700000       0.00420000
N       -1.14350000      -2.02550000      -0.00350000
C        0.03310000      -2.77560000      -0.01440000
O        0.03120000      -3.99570000      -0.02110000
C        1.21250000      -1.90730000      -0.01660000
N        1.17790000      -0.60710000      -0.00930000
H        0.92610000       1.64150000       0.00440000
H       -2.17040000      -0.18520000       0.01250000
H       -1.99820000      -2.56540000      -0.00150000
H        2.17870000      -2.40450000      -0.02490000
