13
Properties=species:S:1:pos:R:3 gdb_29262=T pbc="F F F"
O       -0.08910000       1.35240000       0.21130000
C       -0.00130000       0.01300000       0.03710000
C        1.13920000      -0.67850000      -0.09160000
O        1.20370000      -2.03890000      -0.26760000
C        0.06720000      -2.79090000      -0.32360000
O        0.12140000      -3.97860000      -0.47580000
N       -1.10850000      -2.08070000      -0.19040000
C       -1.28290000      -0.69970000      -0.00800000
N       -2.39670000      -0.09630000       0.10880000
H        0.79610000       1.73340000       0.22790000
H        2.12870000      -0.23970000      -0.07080000
H       -1.93470000      -2.66010000      -0.23450000
H       -3.18760000      -0.74010000       0.05500000
