15
Properties=species:S:1:pos:R:3 gdb_5917=T pbc="F F F"
C        0.20870000       1.56610000       0.22740000
C        0.07490000       0.04400000       0.05290000
O        0.68630000      -0.65700000       1.11940000
C       -1.40020000      -0.39520000      -0.13720000
C       -2.19970000      -0.06700000       1.03790000
N       -2.78110000       0.20520000       1.99940000
C        0.87350000      -0.35550000      -1.19060000
O        0.41270000      -0.40370000      -2.29950000
H        1.26140000       1.83870000       0.34200000
H       -0.20290000       2.09920000      -0.63420000
H       -0.33180000       1.88910000       1.12340000
H        0.31550000      -0.33680000       1.95000000
H       -1.81800000       0.07890000      -1.02940000
H       -1.43110000      -1.47720000      -0.29740000
H        1.93930000      -0.57660000      -0.97000000
