16
Properties=species:S:1:pos:R:3 gdb_49315=T pbc="F F F"
O       -1.02640000       1.36010000       0.27310000
C        0.12690000       1.06050000       0.42620000
C        1.29630000       1.92290000       0.01500000
N        2.44610000       1.44050000       0.24750000
C        3.69580000       2.15440000       0.07400000
C        3.85620000       3.01670000      -1.17510000
O        2.94320000       4.10370000      -1.20310000
C        1.65440000       3.73370000      -1.54070000
O        0.90630000       3.11520000      -0.49440000
H        0.46090000       0.11260000       0.89120000
H        3.83140000       2.79870000       0.95480000
H        4.50910000       1.41970000       0.09360000
H        4.85840000       3.45490000      -1.18650000
H        3.73580000       2.40270000      -2.08130000
H        1.09840000       4.64350000      -1.76770000
H        1.65710000       3.04900000      -2.40410000
