16
Properties=species:S:1:pos:R:3 gdb_3577=T pbc="F F F"
C       -0.08070000       1.55680000      -0.03150000
N        0.17400000       0.12180000       0.03020000
C        1.29560000      -0.66490000      -0.38420000
C        2.71580000      -0.22380000       0.12180000
C        2.73860000       1.02360000       0.96200000
C        2.20570000      -0.25260000       1.55350000
C        0.79120000      -0.69350000       1.03180000
H        0.59930000       2.06330000      -0.72430000
H       -1.10370000       1.71930000      -0.39260000
H        0.00200000       2.02950000       0.95270000
H        1.17180000      -1.39160000      -1.18120000
H        3.62010000      -0.67460000      -0.26620000
H        3.73070000       1.28540000       1.32080000
H        2.11930000       1.88350000       0.75870000
H        2.66690000      -0.72840000       2.40940000
H        0.20080000      -1.44660000       1.54440000
