19
Properties=species:S:1:pos:R:3 gdb_8599=T pbc="F F F"
C       -0.07410000       1.57000000       0.00980000
N        0.01010000       0.12670000       0.04330000
C       -1.21460000      -0.64630000       0.48450000
C       -0.21570000      -1.64990000       1.10620000
C        0.57630000      -2.31130000       2.27990000
C        1.65960000      -1.79680000       1.22140000
C        0.75470000      -2.39300000       0.12690000
C        0.77240000      -0.49810000       1.16310000
H        0.90380000       1.98860000      -0.25050000
H       -0.78880000       1.88440000      -0.75830000
H       -0.39280000       2.01420000       0.97250000
H       -1.80960000      -0.09640000       1.23040000
H       -1.85940000      -0.98750000      -0.33180000
H        0.54650000      -1.79690000       3.24380000
H        0.51280000      -3.39700000       2.39830000
H        2.74370000      -1.90620000       1.32380000
H        0.67160000      -3.48330000       0.10800000
H        0.84800000      -1.96760000      -0.87090000
H        0.77500000       0.12580000       2.06900000
