20
Properties=species:S:1:pos:R:3 gdb_76051=T pbc="F F F"
C       -0.21800000       1.46380000      -0.25270000
N        0.00700000       0.03340000      -0.07790000
C        1.39110000      -0.48640000      -0.18940000
C        2.50900000       0.38010000      -0.43390000
C        3.45260000       1.09630000      -0.64890000
C        0.66080000      -0.41760000       1.12340000
C        1.11970000       0.37600000       2.35670000
C        0.99880000      -0.94450000       3.17590000
C        0.21850000      -1.59670000       1.99560000
H        0.59050000       2.09830000       0.13390000
H       -0.34060000       1.67660000      -1.31870000
H       -1.14890000       1.73040000       0.25730000
H        1.44460000      -1.44870000      -0.69560000
H        4.28640000       1.72430000      -0.84390000
H        2.10320000       0.84800000       2.30340000
H        0.38560000       1.12850000       2.66200000
H        1.97000000      -1.41530000       3.34420000
H        0.47350000      -0.87890000       4.13030000
H       -0.86480000      -1.59630000       2.14980000
H        0.52660000      -2.59570000       1.67790000
