23
Properties=species:S:1:pos:R:3 gdb_86618=T pbc="F F F"
C        0.21140000       1.57160000      -0.11970000
C        0.09860000       0.07170000       0.06640000
O        0.94150000      -0.66370000      -0.85100000
C        1.40940000      -1.54030000       0.20220000
C        2.89280000      -1.74970000       0.17290000
C        3.48110000      -2.98070000       0.82410000
C        3.46530000      -2.85880000      -0.67610000
C        0.74600000      -0.64210000       1.28730000
C        1.66440000       0.17160000       2.19170000
H        1.24070000       1.91750000       0.00340000
H       -0.11720000       1.84240000      -1.12830000
H       -0.42630000       2.10020000       0.59710000
H       -0.95240000      -0.23030000      -0.06260000
H        0.91320000      -2.52200000       0.13020000
H        3.48290000      -0.84070000       0.23060000
H        4.42700000      -2.87940000       1.34380000
H        2.79720000      -3.68740000       1.28320000
H        2.76780000      -3.47840000      -1.22990000
H        4.40190000      -2.67460000      -1.18980000
H        0.02110000      -1.18090000       1.90370000
H        2.41150000       0.73900000       1.63000000
H        1.08730000       0.88540000       2.78900000
H        2.20100000      -0.48390000       2.88500000
