15
Properties=species:S:1:pos:R:3 gdb_26044=T pbc="F F F"
N       -0.15880000       1.42960000       0.12360000
C        0.01480000      -0.02240000      -0.00340000
C        0.78210000      -0.41140000      -1.21510000
N        1.36590000      -0.66640000      -2.17990000
C        0.64460000      -0.59200000       1.22780000
C        0.23890000      -1.50110000       2.15170000
C        1.30260000      -1.60300000       3.10730000
C        2.26850000      -0.74740000       2.68650000
O        1.88580000      -0.12370000       1.54000000
H        0.74980000       1.85910000       0.27400000
H       -0.52160000       1.80890000      -0.74680000
H       -0.97730000      -0.47830000      -0.09270000
H       -0.69970000      -2.03260000       2.15610000
H        1.33610000      -2.22920000       3.98450000
H        3.24010000      -0.47440000       3.06330000
