18
Properties=species:S:1:pos:R:3 gdb_47461=T pbc="F F F"
O       -0.24960000       0.14620000       0.65850000
C       -0.17450000       1.26360000       0.22000000
C       -1.34020000       2.12220000      -0.28310000
C       -0.70780000       3.46510000      -0.69030000
C        0.58880000       3.54770000       0.14650000
C        1.11200000       2.10240000       0.14340000
C        2.13420000       1.75140000       1.23690000
C        2.83170000       0.48870000       0.99850000
N        3.42160000      -0.48350000       0.79510000
H       -1.88240000       1.60920000      -1.08170000
H       -2.04420000       2.23540000       0.55010000
H       -0.45470000       3.45680000      -1.75620000
H       -1.36910000       4.31770000      -0.52200000
H        1.31000000       4.26390000      -0.25480000
H        0.35600000       3.85590000       1.17440000
H        1.55590000       1.89620000      -0.84140000
H        2.88950000       2.54270000       1.30270000
H        1.63630000       1.69990000       2.21150000
