16
Properties=species:S:1:pos:R:3 gdb_126746=T pbc="F F F"
C        0.12290000       1.51730000       0.12590000
C       -0.09370000       0.01700000      -0.06360000
N        0.65180000      -0.51140000      -1.19990000
C        1.72070000      -1.34720000      -1.21600000
N        2.12280000      -1.56680000      -2.44790000
C        1.24570000      -0.82140000      -3.18070000
C        1.23430000      -0.70350000      -4.65160000
O        2.00970000      -1.25390000      -5.39210000
N        0.33720000      -0.16520000      -2.45770000
H        1.17540000       1.74010000       0.32250000
H       -0.18610000       2.06090000      -0.76970000
H       -0.47060000       1.87290000       0.97270000
H        0.23360000      -0.54530000       0.81530000
H       -1.15160000      -0.20480000      -0.22920000
H        2.15050000      -1.75870000      -0.31440000
H        0.42290000      -0.04190000      -5.02160000
