14
Properties=species:S:1:pos:R:3 gdb_131209=T pbc="F F F"
O        0.05700000       1.32310000       0.09330000
C       -0.01790000      -0.02930000       0.02360000
C       -1.19540000      -0.69360000       0.01900000
C       -1.21150000      -2.13820000       0.00410000
N       -2.29430000      -2.83230000       0.00250000
C        0.15590000      -2.71320000      -0.02280000
O        0.21050000      -4.05880000      -0.03700000
N        1.26610000      -2.06050000      -0.02300000
N        1.18030000      -0.69270000      -0.04960000
H        0.80560000       1.63480000      -0.42940000
H       -2.12750000      -0.14680000       0.00600000
H       -2.06750000      -3.82690000      -0.02450000
H        1.14420000      -4.31040000      -0.05110000
H        2.01510000      -0.24110000       0.29080000
