14
Properties=species:S:1:pos:R:3 gdb_128645=T pbc="F F F"
C        0.03720000       1.37680000       0.06950000
O        0.11440000      -0.05600000       0.00700000
C        0.62740000      -0.57870000      -1.08660000
N        1.04700000       0.14390000      -2.06810000
C        1.55770000      -0.55140000      -3.14370000
N        1.67400000      -1.82100000      -3.30480000
O        1.21480000      -2.60540000      -2.23130000
C        0.68020000      -2.05820000      -1.09150000
N        0.26820000      -2.76600000      -0.12820000
H        1.03440000       1.81590000      -0.00930000
H       -0.58500000       1.76060000      -0.74240000
H       -0.40890000       1.59600000       1.03840000
H        1.91620000       0.04010000      -3.98020000
H        0.39550000      -3.75930000      -0.33430000
