16
Properties=species:S:1:pos:R:3 gdb_11839=T pbc="F F F"
C       -0.58190000      -1.14580000      -0.64360000
C       -0.23410000      -0.04420000      -0.31140000
C        0.16560000       1.29160000       0.09400000
C       -0.11000000       1.70610000       1.56780000
C        1.40080000       1.87870000       1.63920000
C        2.21660000       2.98200000       2.22490000
C        2.36610000       1.54810000       2.72450000
O        1.59950000       1.43260000       0.29340000
H       -0.88280000      -2.12010000      -0.94040000
H       -0.18790000       2.02630000      -0.63990000
H       -0.70550000       2.61250000       1.68760000
H       -0.51780000       0.90590000       2.18640000
H        3.01830000       3.38080000       1.61250000
H        1.72730000       3.70940000       2.86520000
H        1.97860000       1.29360000       3.70600000
H        3.26420000       1.01230000       2.43660000
