15
Properties=species:S:1:pos:R:3 gdb_13657=T pbc="F F F"
C       -0.07310000       1.43720000      -0.30930000
N        0.05750000       0.00660000      -0.05880000
C        1.39060000      -0.54760000      -0.07420000
C        0.63820000      -0.43020000       1.22770000
C        1.08420000       0.50560000       2.21280000
C        1.42410000       1.27490000       3.08370000
C        1.84560000       2.21480000       4.08550000
O        2.01110000       1.94710000       5.25460000
H        0.76410000       2.03500000       0.07940000
H       -0.13910000       1.58790000      -1.39060000
H       -0.99860000       1.79840000       0.14770000
H        1.50380000      -1.53080000      -0.52270000
H        2.23260000       0.12900000      -0.21130000
H        0.17250000      -1.32690000       1.62870000
H        2.01480000       3.24040000       3.69760000
