14
Properties=species:S:1:pos:R:3 gdb_133124=T pbc="F F F"
C       -0.03120000       1.39650000      -0.01140000
O        0.01420000      -0.03530000       0.01880000
C        0.63460000      -0.59870000       1.05600000
N        1.18370000       0.13130000       2.01360000
C        1.78400000      -0.52790000       3.01340000
N        1.89230000      -1.84020000       3.15540000
C        1.33280000      -2.57810000       2.18000000
C        0.69180000      -2.00400000       1.10800000
F        0.14010000      -2.73740000       0.14590000
H        0.97720000       1.81670000      -0.03800000
H       -0.57420000       1.64530000      -0.92300000
H       -0.55300000       1.78730000       0.86570000
H        2.22860000       0.08920000       3.78980000
H        1.39790000      -3.66030000       2.25590000
