19
Properties=species:S:1:pos:R:3 gdb_39083=T pbc="F F F"
C       -0.07150000       1.60490000       0.26660000
C        1.42640000       1.39320000       0.01540000
O        1.81610000       0.58140000       1.15420000
C        0.74670000      -0.40730000       1.23250000
C       -0.06790000       0.03590000       0.02650000
C       -1.16640000      -0.60650000      -0.75240000
C       -0.96990000      -0.38370000      -2.05810000
C        0.29830000       0.41970000      -2.34360000
C        1.07490000       0.29140000      -1.01520000
H       -0.35970000       1.97650000       1.25230000
H       -0.59910000       2.14100000      -0.52160000
H        2.16290000       2.18470000      -0.11680000
H        1.16350000      -1.41620000       1.13500000
H        0.23340000      -0.31970000       2.19730000
H       -2.02610000      -1.10970000      -0.32520000
H       -1.65010000      -0.68780000      -2.84730000
H        0.86540000       0.02290000      -3.19180000
H        0.04400000       1.45530000      -2.60540000
H        1.83310000      -0.49450000      -1.08050000
