17
Properties=species:S:1:pos:R:3 gdb_71135=T pbc="F F F"
C       -0.02420000       1.50220000       0.04520000
C       -0.03530000       0.00240000      -0.07840000
C        0.82650000      -0.65080000      -1.15460000
C        0.35660000      -2.11730000      -1.14780000
O        0.86640000      -3.03030000      -1.74550000
C       -0.88080000      -2.17730000      -0.30600000
C       -0.81370000      -1.48110000       1.06890000
O        0.33200000      -0.65840000       1.19520000
C       -1.39850000      -0.76120000      -0.08010000
H        0.98680000       1.85680000       0.26850000
H       -0.35340000       1.96650000      -0.89030000
H       -0.68820000       1.82630000       0.85100000
H        0.63030000      -0.21740000      -2.14330000
H        1.89730000      -0.57890000      -0.94980000
H       -1.55820000      -3.01670000      -0.39910000
H       -1.23220000      -1.93170000       1.96050000
H       -2.38680000      -0.38750000      -0.30930000
