17
Properties=species:S:1:pos:R:3 gdb_1349=T pbc="F F F"
C        0.19140000       1.47650000       0.02160000
C       -0.09210000      -0.03170000       0.02430000
O       -1.50780000      -0.25380000      -0.02940000
C        0.53280000      -0.77510000      -1.18570000
C        1.77190000      -1.53230000      -0.64740000
C        1.55580000      -1.52770000       0.84680000
C        0.55830000      -0.72550000       1.20720000
H        1.26600000       1.67680000      -0.03280000
H       -0.29930000       1.94910000      -0.83510000
H       -0.18550000       1.94890000       0.93750000
H       -1.91560000       0.26550000       0.67190000
H       -0.21700000      -1.48350000      -1.54610000
H        0.77120000      -0.09770000      -2.00950000
H        1.85740000      -2.54490000      -1.05810000
H        2.70940000      -1.02110000      -0.90600000
H        2.17560000      -2.10250000       1.52720000
H        0.23260000      -0.53490000       2.22540000
