16
Properties=species:S:1:pos:R:3 gdb_126098=T pbc="F F F"
C        0.07170000       1.58960000      -0.10740000
C       -0.01780000       0.07690000       0.05230000
O        0.63010000      -0.54900000      -1.08330000
C        1.46000000      -1.65650000      -0.71280000
C        1.58230000      -1.52260000       0.77330000
N        2.26290000      -2.09440000       1.72610000
O        1.83040000      -1.43440000       2.88700000
C        0.90930000      -0.49930000       2.56130000
C        0.70960000      -0.50650000       1.22370000
H        1.11500000       1.91520000      -0.08760000
H       -0.37210000       1.88980000      -1.06010000
H       -0.47110000       2.09070000       0.70050000
H       -1.07660000      -0.22600000       0.05880000
H        0.99040000      -2.60920000      -0.99770000
H        2.41610000      -1.57600000      -1.24120000
H        0.51470000       0.06530000       3.39140000
