20
Properties=species:S:1:pos:R:3 gdb_120543=T pbc="F F F"
O        0.36520000       1.12510000       0.03460000
C       -0.08400000      -0.21000000       0.22830000
C       -1.60330000      -0.33880000       0.14580000
N       -2.11800000       0.09290000      -1.14390000
C       -2.40130000       1.52940000      -1.34930000
C       -3.71060000       1.13100000      -2.10450000
C       -3.51410000      -0.26560000      -1.48150000
C       -4.94190000       1.91130000      -1.74160000
O       -5.81000000       1.52300000      -1.00070000
H        0.32630000       1.30350000      -0.90950000
H        0.37930000      -0.89050000      -0.50010000
H        0.25280000      -0.50710000       1.22760000
H       -1.86960000      -1.39520000       0.27860000
H       -2.06640000       0.22410000       0.97780000
H       -2.60020000       2.07270000      -0.41270000
H       -1.65190000       2.08440000      -1.92270000
H       -3.56530000       1.16030000      -3.18850000
H       -3.61410000      -1.13430000      -2.13940000
H       -4.16570000      -0.39700000      -0.60620000
H       -4.99670000       2.92550000      -2.20070000
