13
Properties=species:S:1:pos:R:3 gdb_23972=T pbc="F F F"
C       -0.01990000      -1.21810000      -0.00250000
C       -0.01750000      -0.01420000       0.00350000
C       -0.00190000       1.40020000       0.01040000
C       -1.11500000       2.23420000       0.03020000
N       -0.68510000       3.52040000       0.03060000
C        0.69720000       3.55190000       0.01130000
C        1.14390000       2.24450000      -0.00160000
C        1.40990000       4.76970000       0.00740000
N        1.98050000       5.77880000       0.00440000
H       -0.02320000      -2.27980000      -0.00780000
H       -2.16390000       1.98770000       0.04370000
H       -1.27310000       4.33690000       0.04300000
H        2.17400000       1.92860000      -0.01770000
