18
Properties=species:S:1:pos:R:3 gdb_99156=T pbc="F F F"
C        0.07040000       1.25910000      -0.02980000
O       -0.08730000      -0.13260000       0.24710000
C       -1.33710000      -0.61440000       0.01260000
O       -2.26290000       0.04920000      -0.40020000
N       -1.38530000      -1.93680000       0.31780000
C       -2.58720000      -2.69240000       0.20700000
C       -2.72370000      -3.74550000      -0.88050000
C       -2.49240000      -4.14680000       0.55780000
O       -1.22120000      -4.57850000       0.95730000
H        1.10990000       1.49140000       0.20500000
H       -0.13830000       1.47550000      -1.08100000
H       -0.60120000       1.86010000       0.58930000
H       -0.57030000      -2.39590000       0.69230000
H       -3.47510000      -2.14120000       0.49380000
H       -3.69910000      -3.91960000      -1.32110000
H       -1.88080000      -3.84620000      -1.55570000
H       -3.31710000      -4.59380000       1.11070000
H       -1.03340000      -5.41600000       0.52190000
