18
Properties=species:S:1:pos:R:3 gdb_113623=T pbc="F F F"
C        0.45440000       1.39450000      -0.11370000
C        0.17960000      -0.10810000       0.02040000
C        0.61820000      -0.67580000       1.35340000
C        0.90640000      -2.14460000       1.52460000
N        1.96650000      -1.16240000       1.57500000
C        3.06680000      -1.06300000       0.74690000
O        3.42620000      -0.03590000       0.20680000
C        3.82700000      -2.30010000       0.64650000
C        4.46650000      -3.31120000       0.52380000
H        1.52620000       1.59120000      -0.04600000
H        0.08940000       1.76940000      -1.07450000
H       -0.05340000       1.95810000       0.67690000
H       -0.89590000      -0.30290000      -0.08230000
H        0.67620000      -0.65550000      -0.78870000
H        0.20820000      -0.15840000       2.22090000
H        0.67170000      -2.64620000       2.45970000
H        0.84920000      -2.77220000       0.63790000
H        5.04260000      -4.19740000       0.41200000
