18
Properties=species:S:1:pos:R:3 gdb_75356=T pbc="F F F"
C       -0.21320000       1.54000000       0.03790000
C       -0.04960000       0.05620000      -0.02580000
C       -0.03210000      -0.72760000      -1.10540000
C        0.16300000      -2.19140000      -0.79440000
C        0.37350000      -2.21280000       0.73210000
O        1.75730000      -2.48320000       1.08470000
C        2.18820000      -1.38950000       1.75720000
N        1.41820000      -0.39920000       1.93420000
C        0.15920000      -0.75570000       1.23940000
H        0.64280000       1.99530000       0.54840000
H       -0.30410000       1.98050000      -0.95850000
H       -1.10450000       1.81470000       0.61670000
H       -0.15380000      -0.36870000      -2.12240000
H       -0.70930000      -2.79220000      -1.08240000
H        1.02660000      -2.62960000      -1.30750000
H       -0.23350000      -2.96810000       1.23570000
H        3.21280000      -1.45980000       2.10710000
H       -0.67550000      -0.64130000       1.94080000
