18
Properties=species:S:1:pos:R:3 gdb_73966=T pbc="F F F"
C       -0.08890000       1.29510000       0.34560000
C       -0.03390000      -0.05470000      -0.28560000
C       -1.07480000      -0.92290000      -0.36700000
C       -1.59640000      -1.54960000       0.90540000
C       -1.39470000      -2.92700000       0.43590000
C       -0.62700000      -2.36370000      -0.78270000
C        0.62830000      -2.26830000       0.07630000
C        1.24440000      -0.89170000      -0.31590000
N       -0.31100000      -2.37090000       1.31660000
H        0.56860000       1.35050000       1.22320000
H        0.25620000       2.07460000      -0.34740000
H       -1.10920000       1.55270000       0.64510000
H       -2.15840000      -1.16160000       1.74480000
H       -1.91030000      -3.85770000       0.63440000
H       -0.66340000      -2.69100000      -1.82100000
H        1.32420000      -3.10900000       0.13630000
H        1.76940000      -0.99970000      -1.27580000
H        1.96690000      -0.47510000       0.39550000
