18
Properties=species:S:1:pos:R:3 gdb_59750=T pbc="F F F"
C        0.35230000       0.29910000       0.96710000
C       -0.49360000      -0.11690000      -0.23580000
O       -1.20900000       0.97920000      -0.78700000
C        0.31730000      -0.79590000      -1.34590000
O        1.33950000       0.09240000      -1.80920000
C        2.40430000      -0.71460000      -2.22580000
O        2.36060000      -1.90230000      -1.43310000
C        1.09440000      -2.03110000      -0.93810000
N        0.64920000      -2.99550000      -0.26130000
H        0.79970000      -0.57330000       1.45130000
H        1.15500000       0.97720000       0.66090000
H       -0.28190000       0.81390000       1.69240000
H       -1.25210000      -0.83990000       0.08060000
H       -0.55440000       1.60980000      -1.10930000
H       -0.36840000      -1.04370000      -2.17020000
H        2.31270000      -0.99780000      -3.28650000
H        3.35040000      -0.19770000      -2.04620000
H        1.35980000      -3.71670000      -0.13050000
