17
Properties=species:S:1:pos:R:3 gdb_12402=T pbc="F F F"
O        0.10230000       1.35910000       0.22160000
C        0.00160000      -0.02470000       0.02200000
C       -1.45080000      -0.49780000       0.03650000
C       -1.48310000      -1.99730000      -0.27220000
C       -0.91120000      -2.27800000      -1.66380000
N        0.34650000      -1.56300000      -1.88360000
C        0.70760000      -0.39430000      -1.28900000
O        1.58780000       0.33180000      -1.72800000
H        0.85030000       1.63250000      -0.33420000
H        0.54640000      -0.57140000       0.81570000
H       -1.89840000      -0.28160000       1.01100000
H       -2.01950000       0.06680000      -0.71270000
H       -0.89850000      -2.53950000       0.48100000
H       -2.50340000      -2.38940000      -0.22720000
H       -0.73120000      -3.35050000      -1.79400000
H       -1.64470000      -1.97940000      -2.42770000
H        0.83250000      -1.73880000      -2.75280000
