19
Properties=species:S:1:pos:R:3 gdb_119686=T pbc="F F F"
C        0.00830000       1.50200000      -0.14470000
C       -0.13300000      -0.00910000      -0.14030000
O        0.87420000      -0.55210000      -0.99510000
C        0.83580000      -1.91550000      -1.10510000
C        1.28840000      -2.98080000      -0.09900000
C        1.17060000      -3.94440000      -1.30970000
O       -0.26170000      -4.00830000      -1.57690000
C       -0.13920000      -2.66600000      -2.04660000
C        1.33640000      -2.72210000      -2.28910000
H        0.99790000       1.79660000       0.21580000
H       -0.11930000       1.89740000      -1.15640000
H       -0.74700000       1.95550000       0.50390000
H       -0.01280000      -0.40910000       0.87730000
H       -1.12630000      -0.31640000      -0.49860000
H        2.32970000      -2.82470000       0.19440000
H        0.66460000      -3.21560000       0.76870000
H        1.66980000      -4.90950000      -1.34810000
H       -0.95050000      -2.20590000      -2.59490000
H        1.97520000      -2.49540000      -3.13080000
