14
Properties=species:S:1:pos:R:3 gdb_99444=T pbc="F F F"
N       -0.03880000       1.47520000       0.03550000
C        0.02540000       0.02470000      -0.01840000
C       -1.42520000      -0.55310000      -0.01430000
C       -2.15650000      -0.09000000      -1.20420000
N       -2.69620000       0.30810000      -2.14440000
C       -1.42890000      -2.00950000       0.07280000
C       -1.39600000      -3.21130000       0.17200000
C       -1.35930000      -4.57240000       0.28350000
N       -1.32430000      -5.72890000       0.38130000
H        0.86540000       1.85860000       0.28600000
H       -0.28580000       1.85910000      -0.87150000
H        0.55820000      -0.39800000      -0.88320000
H        0.51710000      -0.34460000       0.88570000
H       -1.93070000      -0.13370000       0.86540000
