17
Properties=species:S:1:pos:R:3 gdb_103063=T pbc="F F F"
O        0.31250000       0.84310000       0.83440000
C       -0.04630000       0.06790000      -0.28130000
C       -1.45990000      -0.53990000      -0.15600000
C       -2.49110000       0.12060000      -0.91520000
N       -3.31020000       0.65340000      -1.53540000
C       -1.73550000      -2.04490000       0.02480000
C       -0.63040000      -2.68710000       0.86690000
N       -0.76880000      -1.59900000       1.90130000
C       -1.94980000      -1.08810000       1.17090000
H        0.29130000       0.22780000       1.58300000
H       -0.02110000       0.72660000      -1.15310000
H        0.67450000      -0.74080000      -0.46850000
H       -2.43680000      -2.56190000      -0.61550000
H       -0.94480000      -3.66310000       1.24640000
H        0.37260000      -2.77390000       0.43840000
H       -1.02470000      -1.98090000       2.80500000
H       -2.83970000      -0.72160000       1.66650000
