19
Properties=species:S:1:pos:R:3 gdb_48444=T pbc="F F F"
O       -0.31100000       0.15790000      -0.16560000
C       -0.09970000       1.28960000       0.18700000
C        1.23790000       1.99420000       0.08640000
C        1.71910000       2.50040000       1.47710000
O        2.73350000       1.48560000       1.53910000
C        2.45110000       1.04020000       0.19420000
C        1.27320000       2.99830000      -1.04860000
C        0.77280000       2.64340000      -2.42780000
C        0.04680000       3.68200000      -1.61100000
H       -0.90990000       1.90910000       0.63540000
H        2.13860000       3.51530000       1.46700000
H        0.99930000       2.42220000       2.30300000
H        2.21730000      -0.02720000       0.14380000
H        3.27020000       1.27470000      -0.49670000
H        2.17140000       3.61060000      -1.02100000
H        1.35630000       2.96910000      -3.28130000
H        0.29330000       1.67890000      -2.55670000
H       -0.93090000       3.42740000      -1.21800000
H        0.14270000       4.72330000      -1.89690000
