15
Properties=species:S:1:pos:R:3 gdb_69188=T pbc="F F F"
C        0.00000000       1.54320000       0.03010000
C       -0.04350000       0.04790000      -0.01560000
C       -0.84720000      -0.80470000       0.86600000
N        0.64630000      -0.82070000       1.05700000
C        1.14110000      -1.67310000       0.00650000
O        1.84570000      -2.62450000       0.05360000
C        0.55950000      -0.79520000      -1.15510000
C       -0.32730000      -1.39300000      -2.13400000
N       -1.05720000      -1.88150000      -2.88610000
H        0.99030000       1.91910000      -0.24530000
H       -0.73180000       1.96680000      -0.66610000
H       -0.23620000       1.90320000       1.03470000
H       -1.34980000      -0.33570000       1.70490000
H       -1.33200000      -1.70070000       0.48820000
H        1.38810000      -0.28240000      -1.65370000
