23
Properties=species:S:1:pos:R:3 gdb_64503=T pbc="F F F"
C        0.05020000       1.60680000       0.03810000
C        0.05640000       0.08990000       0.02570000
C       -1.17350000      -0.57940000      -0.54720000
C       -2.57610000      -0.05590000      -0.35610000
C       -1.94450000      -0.04200000      -1.72830000
C        1.30780000      -0.71600000      -0.25280000
C        2.57470000      -0.07140000       0.32310000
C        1.92090000      -0.08560000       1.74310000
C        0.66450000      -0.73000000       1.14420000
H        0.96710000       2.01830000       0.46350000
H       -0.04270000       2.01320000      -0.97480000
H       -0.78190000       1.99710000       0.63400000
H       -1.09480000      -1.66400000      -0.52200000
H       -3.36530000      -0.77210000      -0.15460000
H       -2.71110000       0.89740000       0.14210000
H       -1.66120000       0.92040000      -2.13880000
H       -2.29910000      -0.74870000      -2.47070000
H        1.30310000      -1.49050000      -1.01210000
H        3.44010000      -0.73570000       0.26780000
H        2.86470000       0.90020000      -0.08970000
H        2.44660000      -0.75690000       2.42580000
H        1.78820000       0.87700000       2.24760000
H        0.09050000      -1.51690000       1.62140000
