20
Properties=species:S:1:pos:R:3 gdb_106265=T pbc="F F F"
C       -0.02750000       1.53920000      -0.00070000
C       -0.03180000       0.00670000       0.07150000
C       -1.41600000      -0.56450000      -0.02640000
C       -1.90050000      -2.05230000       0.02400000
C       -3.21940000      -1.20590000      -0.00310000
C       -4.64540000      -1.64020000       0.13370000
N       -2.55330000      -0.19600000       0.94420000
C       -2.50650000      -0.39640000      -1.10590000
O       -2.68120000       0.05190000      -2.19400000
H        0.98940000       1.93050000       0.09230000
H       -0.44070000       1.88310000      -0.95350000
H       -0.63700000       1.96610000       0.80050000
H        0.56820000      -0.41340000      -0.74550000
H        0.43840000      -0.33260000       1.00370000
H       -1.67240000      -2.72100000      -0.81320000
H       -1.71750000      -2.53340000       0.99070000
H       -4.80650000      -2.20730000       1.05640000
H       -5.30630000      -0.76870000       0.14540000
H       -4.93140000      -2.27600000      -0.70990000
H       -2.36430000      -0.69320000       1.82290000
