13
Properties=species:S:1:pos:R:3 gdb_19028=T pbc="F F F"
O       -0.03720000       0.00590000       0.20950000
C       -0.04540000       1.17910000      -0.05800000
C       -1.22990000       2.11330000      -0.18050000
C       -0.68990000       3.33700000      -0.37320000
N       -0.34740000       4.13800000       0.82090000
C        1.06690000       3.62520000       0.46200000
C        0.73160000       3.30030000      -0.93160000
C        1.14540000       2.12700000      -0.06070000
H       -2.08570000       1.92860000       0.45970000
H       -0.27710000       5.13160000       0.57960000
H        1.93540000       4.09370000       0.91580000
H        1.13210000       3.57340000      -1.89850000
H        2.15370000       1.72270000      -0.09410000
