23
Properties=species:S:1:pos:R:3 gdb_75020=T pbc="F F F"
C       -0.12340000       1.56320000       0.05840000
C        0.02500000       0.06530000      -0.01910000
C        0.07100000      -0.54850000      -1.21520000
C        0.14520000      -1.95840000      -1.58470000
C        0.19020000      -3.07990000      -0.84340000
C        0.19170000      -4.43050000      -1.51230000
C        0.22870000      -3.13210000       0.66510000
C        0.87660000      -1.94160000       1.38020000
C        0.09700000      -0.62360000       1.32250000
H        0.74180000       2.02420000       0.55420000
H       -0.23080000       2.01610000      -0.93050000
H       -1.00170000       1.84200000       0.65690000
H        0.01030000       0.10880000      -2.08150000
H        0.12720000      -2.11020000      -2.66310000
H        0.10390000      -4.34980000      -2.59870000
H        1.11030000      -4.98770000      -1.28320000
H       -0.63940000      -5.05100000      -1.14960000
H       -0.79390000      -3.28050000       1.04580000
H        0.77000000      -4.04180000       0.95800000
H        1.00640000      -2.21130000       2.43510000
H        1.88270000      -1.78260000       0.97470000
H        0.55410000       0.07460000       2.03670000
H       -0.92490000      -0.78130000       1.70100000
