22
Properties=species:S:1:pos:R:3 gdb_103923=T pbc="F F F"
C        0.22560000       1.49770000       0.08140000
C       -0.03280000       0.02570000      -0.04620000
C       -0.96150000      -0.72460000       0.81690000
N        0.48900000      -0.99510000       0.96290000
C        0.92540000      -1.86030000      -0.20930000
C        2.44960000      -1.91490000      -0.18960000
C        0.33060000      -3.27060000      -0.21730000
O        0.65700000      -3.99310000      -1.39670000
C        0.37490000      -0.83690000      -1.24450000
H        1.24620000       1.75110000      -0.22540000
H       -0.46510000       2.06890000      -0.55080000
H        0.09010000       1.82730000       1.11570000
H       -1.36500000      -0.21290000       1.68590000
H       -1.62770000      -1.47240000       0.39600000
H        2.80460000      -2.48400000       0.67670000
H        2.83990000      -2.37390000      -1.10480000
H        2.86870000      -0.90760000      -0.11750000
H        0.65610000      -3.80120000       0.69150000
H       -0.76110000      -3.23590000      -0.19750000
H        1.59510000      -4.20270000      -1.36730000
H       -0.43640000      -1.17250000      -1.89630000
H        1.15780000      -0.39300000      -1.86350000
