17
Properties=species:S:1:pos:R:3 gdb_23600=T pbc="F F F"
O       -0.14240000       1.34220000      -0.02330000
N        0.02620000      -0.05650000      -0.00080000
C       -1.09110000      -0.64740000      -0.05920000
C       -2.55520000      -0.22960000      -0.06650000
C       -2.93120000      -1.74370000       0.03160000
C       -3.10590000      -2.52900000      -1.29050000
N       -2.20680000      -1.90940000      -2.29150000
C       -1.65890000      -2.88230000      -1.31950000
C       -1.40600000      -2.13000000       0.01440000
H        0.76700000       1.65480000       0.03070000
H       -2.83510000       0.36100000       0.81130000
H       -2.88160000       0.28950000      -0.96940000
H       -3.57320000      -2.05860000       0.85210000
H       -3.97480000      -3.09400000      -1.60580000
H       -2.34220000      -2.40670000      -3.17050000
H       -1.15290000      -3.77680000      -1.66140000
H       -0.94510000      -2.72440000       0.80300000
