19
Properties=species:S:1:pos:R:3 gdb_63175=T pbc="F F F"
C       -0.05470000       1.59200000       0.02990000
C        0.06030000       0.08790000       0.09310000
O       -1.15550000      -0.58560000      -0.17550000
C        1.30050000      -0.69870000      -0.32800000
C        2.64250000       0.00110000      -0.32010000
O        2.74110000       0.67180000       0.94140000
C        1.93490000      -0.00170000       1.90010000
C        0.83170000      -0.69410000       1.12440000
O        0.24120000      -1.75990000       1.77990000
H        0.88040000       2.07220000       0.32330000
H       -0.30080000       1.91640000      -0.98900000
H       -0.85500000       1.93570000       0.69270000
H       -1.30130000      -0.59060000      -1.12750000
H        1.15490000      -1.57340000      -0.95260000
H        3.44700000      -0.74200000      -0.43590000
H        2.77220000       0.76670000      -1.09340000
H        2.49970000      -0.77070000       2.44990000
H        1.58120000       0.74640000       2.61690000
H       -0.61660000      -1.89080000       1.35270000
