21
Properties=species:S:1:pos:R:3 gdb_86933=T pbc="F F F"
C        0.01700000       1.48820000      -0.06700000
C        0.05420000      -0.02860000      -0.07540000
C        0.83480000      -0.78150000      -1.18860000
C        1.31030000      -1.72540000      -0.05660000
N        0.94650000      -0.67670000       0.90970000
C        0.40490000      -1.07080000       2.18990000
N        0.10820000      -1.33370000      -2.29990000
C        0.41350000      -1.07970000      -3.60410000
O        1.31890000      -0.37240000      -3.98930000
H        1.03030000       1.89510000      -0.12610000
H       -0.56190000       1.86290000      -0.91800000
H       -0.45120000       1.86740000       0.84790000
H       -0.97490000      -0.43520000      -0.01730000
H        1.64380000      -0.18060000      -1.60290000
H        0.66810000      -2.62310000       0.01050000
H        2.35890000      -2.03930000      -0.04180000
H        1.17200000      -1.58720000       2.77660000
H        0.09600000      -0.18420000       2.75340000
H       -0.47030000      -1.74420000       2.10320000
H       -0.67450000      -1.94030000      -2.10980000
H       -0.27660000      -1.60710000      -4.29260000
