12
Properties=species:S:1:pos:R:3 gdb_23661=T pbc="F F F"
N       -0.04910000       1.35320000      -0.09920000
C        0.01700000      -0.00420000      -0.04040000
N       -1.15360000      -0.65950000      -0.02200000
C       -1.06810000      -1.97550000      -0.00330000
F       -2.23070000      -2.60410000       0.01270000
N       -0.00400000      -2.75330000       0.00610000
C        1.15830000      -2.07920000      -0.00840000
C        1.24050000      -0.70320000      -0.03250000
H        0.76480000       1.90220000       0.11550000
H       -0.95030000       1.77040000       0.06790000
H        2.06010000      -2.68620000       0.00040000
H        2.19290000      -0.18820000      -0.04810000
