19
Properties=species:S:1:pos:R:3 gdb_112276=T pbc="F F F"
C       -0.04030000       1.54270000      -0.32750000
O        0.62660000       0.33410000       0.00130000
C        0.77000000      -0.53090000      -1.08310000
C        1.46080000      -1.89840000      -0.79430000
C        1.36360000      -2.31700000       0.66420000
O        1.78700000      -3.67080000       0.74130000
C        0.40850000      -2.61510000      -1.69680000
C       -0.44890000      -1.34290000      -1.59420000
O       -1.61680000      -1.10230000      -1.70500000
H        0.51220000       2.10220000      -1.09820000
H       -1.05800000       1.35400000      -0.68730000
H       -0.08040000       2.14150000       0.58500000
H        1.25100000      -0.02770000      -1.94150000
H        2.49570000      -1.97410000      -1.13120000
H        1.99180000      -1.65750000       1.27910000
H        0.32740000      -2.19960000       1.01890000
H        1.71650000      -3.95460000       1.65740000
H        0.75350000      -2.79740000      -2.71900000
H       -0.02980000      -3.53400000      -1.30310000
