15
Properties=species:S:1:pos:R:3 gdb_13572=T pbc="F F F"
C        0.44200000       1.40520000       0.10460000
C        0.03650000      -0.04030000      -0.05460000
C        0.69990000      -0.91900000      -1.07240000
N        0.93660000      -1.13000000       0.34210000
C        2.18800000      -0.94750000       0.90130000
N        3.27360000      -1.21440000       0.28480000
C        2.14310000      -0.50470000       2.28750000
N        2.15240000      -0.13230000       3.38240000
H        1.48820000       1.55940000      -0.17590000
H       -0.17890000       2.03580000      -0.53950000
H        0.30800000       1.74440000       1.13630000
H       -1.00250000      -0.25500000       0.18640000
H        0.13680000      -1.70130000      -1.57250000
H        1.52360000      -0.50000000      -1.64420000
H        4.07970000      -1.11570000       0.90030000
