17
Properties=species:S:1:pos:R:3 gdb_88135=T pbc="F F F"
C       -0.10380000       1.51370000      -0.13900000
C       -0.02260000       0.02360000       0.05030000
O        1.26010000      -0.59340000      -0.08060000
C        0.64840000      -0.61010000       1.20450000
C        1.29770000       0.07070000       2.39370000
O        0.70520000      -0.54830000       3.53720000
C        0.43100000      -1.90770000       3.23350000
C        0.17210000      -1.95050000       1.73080000
O       -0.29880000      -2.84720000       1.08380000
H        0.74130000       2.02450000       0.32870000
H       -0.09780000       1.75590000      -1.20660000
H       -1.03400000       1.90280000       0.28800000
H       -0.82330000      -0.56140000      -0.40500000
H        2.38690000      -0.09140000       2.36720000
H        1.10590000       1.14320000       2.46490000
H        1.28420000      -2.56590000       3.47090000
H       -0.43310000      -2.24150000       3.81370000
