19
Properties=species:S:1:pos:R:3 gdb_108922=T pbc="F F F"
C       -0.12350000       1.54830000       0.10570000
C        0.13220000       0.07420000      -0.02440000
O       -0.74960000      -0.79730000       0.73800000
C        0.65000000      -0.81670000       1.03080000
C        1.41100000      -1.95930000       0.37010000
C        1.22340000      -1.68580000      -1.11540000
C        1.71990000      -2.63940000      -2.16020000
O        1.31530000      -2.31770000      -3.47690000
C        0.54710000      -0.55030000      -1.32190000
H        0.74920000       2.12420000      -0.21970000
H       -0.97430000       1.85030000      -0.51520000
H       -0.35190000       1.80860000       1.14200000
H        0.92500000      -0.46970000       2.02400000
H        2.47160000      -1.94760000       0.65480000
H        1.01240000      -2.93780000       0.66540000
H        2.81840000      -2.63830000      -2.17630000
H        1.42460000      -3.66690000      -1.88370000
H        0.35210000      -2.32310000      -3.48870000
H        0.30580000      -0.13200000      -2.29120000
