11
Properties=species:S:1:pos:R:3 gdb_132717=T pbc="F F F"
F        0.00750000       0.05120000       0.00350000
C       -0.00960000       1.37040000       0.01050000
C       -1.24380000       2.03340000       0.03030000
N       -1.29370000       3.35500000       0.03770000
C       -0.11750000       4.00500000       0.02540000
C        1.10030000       3.31960000       0.00570000
N        1.14810000       1.98640000      -0.00170000
C       -0.13740000       5.44030000       0.03300000
N       -0.11340000       6.59660000       0.03860000
H       -2.17630000       1.47810000       0.03980000
H        2.04440000       3.85510000      -0.00400000
