21
Properties=species:S:1:pos:R:3 gdb_73838=T pbc="F F F"
C        0.08690000       1.49070000       0.12730000
C       -0.03080000       0.00540000      -0.00660000
C       -0.10770000      -0.74730000      -1.11790000
C       -0.06050000      -0.33080000      -2.55330000
C       -0.03700000      -2.21010000      -0.71430000
C        1.42620000      -2.47770000      -0.17740000
C        0.92990000      -2.11650000       1.21730000
C       -0.50910000      -2.25530000       0.77510000
C       -0.02800000      -0.89620000       1.18990000
H        1.04390000       1.77470000       0.58440000
H        0.01520000       2.00000000      -0.83720000
H       -0.69930000       1.89490000       0.77830000
H       -0.06200000       0.75620000      -2.67070000
H        0.83810000      -0.71630000      -3.05390000
H       -0.91880000      -0.72960000      -3.11000000
H       -0.43080000      -2.93090000      -1.43110000
H        1.67020000      -3.54240000      -0.22680000
H        2.23730000      -1.89310000      -0.62610000
H        1.38780000      -2.41440000       2.15350000
H       -1.34140000      -2.80030000       1.20370000
H       -0.29570000      -0.51150000       2.16870000
