27
Properties=species:S:1:pos:R:3 gdb_123140=T pbc="F F F"
C       -0.06770000       1.60150000       0.06300000
C       -0.01960000       0.07190000       0.01480000
C        0.70180000      -0.47140000      -1.22330000
C        0.75380000      -2.00170000      -1.28120000
C        1.47410000      -2.54010000      -2.52160000
C        1.52220000      -4.07040000      -2.57490000
C        2.21600000      -4.62010000      -3.82070000
C        2.31420000      -6.14610000      -3.80720000
O        1.46210000      -4.16600000      -4.94480000
H        0.94130000       2.02920000       0.07290000
H       -0.58820000       2.00840000      -0.81120000
H       -0.58900000       1.95910000       0.95670000
H        0.47640000      -0.30810000       0.91810000
H       -1.04210000      -0.32780000       0.04180000
H        0.20660000      -0.09090000      -2.12770000
H        1.72530000      -0.07130000      -1.25060000
H        1.24800000      -2.38230000      -0.37580000
H       -0.27020000      -2.40010000      -1.25460000
H        0.98180000      -2.17080000      -3.42780000
H        2.49960000      -2.14450000      -2.54620000
H        2.04080000      -4.45890000      -1.68910000
H        0.50140000      -4.47480000      -2.54640000
H        3.23620000      -4.19980000      -3.86430000
H        1.31560000      -6.59180000      -3.75520000
H        2.80450000      -6.51510000      -4.71590000
H        2.89860000      -6.49730000      -2.95030000
H        1.89250000      -4.49010000      -5.74190000
