19
Properties=species:S:1:pos:R:3 gdb_71683=T pbc="F F F"
C       -0.04260000       1.43910000       0.00290000
C        0.06510000      -0.05770000      -0.03340000
O       -1.21910000      -0.74640000      -0.14110000
C       -0.45770000      -1.83370000      -0.68350000
C        0.62540000      -2.22540000       0.37810000
C        1.79820000      -1.70770000      -0.52480000
C        2.31400000      -0.83370000       0.63480000
C        0.82720000      -0.82390000       1.07590000
C        0.65940000      -0.90920000      -1.22630000
H        0.94880000       1.89730000       0.07360000
H       -0.53610000       1.81770000      -0.89660000
H       -0.62880000       1.75460000       0.87290000
H       -1.03610000      -2.58150000      -1.22440000
H        0.63950000      -3.14140000       0.96410000
H        2.43860000      -2.34900000      -1.12830000
H        2.94840000      -1.39870000       1.32390000
H        2.79270000       0.12530000       0.40600000
H        0.52090000      -0.62610000       2.10290000
H        0.70120000      -0.48700000      -2.22860000
