23
Properties=species:S:1:pos:R:3 gdb_77699=T pbc="F F F"
C       -0.59540000       1.10330000      -0.09840000
C       -0.07570000      -0.32450000      -0.01180000
C        1.14410000      -0.72850000      -0.87080000
C        1.15960000      -1.19860000      -2.29250000
C        1.81280000       0.11400000      -1.91870000
C        1.84400000      -1.36560000       0.34060000
C        0.75040000      -0.74480000       1.22500000
C        0.99100000       0.07980000       2.45660000
C        0.25050000      -1.23640000       2.54810000
H        0.20800000       1.82980000       0.05860000
H       -1.04370000       1.30170000      -1.07870000
H       -1.37010000       1.28810000       0.65470000
H       -0.90580000      -1.02490000      -0.17320000
H        1.80000000      -2.03720000      -2.54860000
H        0.23120000      -1.16180000      -2.85490000
H        1.32730000       1.03180000      -2.23470000
H        2.89740000       0.16450000      -1.91520000
H        1.82720000      -2.46140000       0.32890000
H        2.86910000      -1.03420000       0.53570000
H        2.00270000       0.12750000       2.84770000
H        0.42120000       0.99420000       2.58870000
H       -0.81890000      -1.20550000       2.73600000
H        0.75670000      -2.08060000       3.00650000
