17
Properties=species:S:1:pos:R:3 gdb_127416=T pbc="F F F"
C       -0.14790000       1.51030000      -0.08480000
N        0.11920000       0.08690000       0.00490000
C        0.79090000      -0.54390000      -1.15300000
C        1.36350000      -1.87320000      -0.59170000
N        1.48680000      -1.50740000       0.80800000
N        2.04340000      -2.08650000       1.89920000
N        1.70570000      -1.33350000       2.90740000
C        0.91530000      -0.29140000       2.49060000
C        0.76400000      -0.41630000       1.12760000
H        0.76990000       2.11150000      -0.19380000
H       -0.79500000       1.70410000      -0.94470000
H       -0.67460000       1.83890000       0.81440000
H        0.08840000      -0.70120000      -1.97510000
H        1.61160000       0.09550000      -1.51540000
H        0.66550000      -2.70880000      -0.71210000
H        2.32420000      -2.14440000      -1.03180000
H        0.53420000       0.44140000       3.18050000
