20
Properties=species:S:1:pos:R:3 gdb_85336=T pbc="F F F"
C        0.03680000       1.57630000      -0.00370000
C        0.06310000       0.04970000       0.00470000
C        0.62260000      -0.53180000      -1.29790000
C        0.89400000      -2.01490000      -1.19050000
C        0.90320000      -2.80600000      -2.46520000
C        1.15710000      -2.55320000       0.00680000
C        1.23270000      -1.75470000       1.25280000
O        1.62100000      -2.21950000       2.31190000
N        0.87390000      -0.43050000       1.11990000
H        1.04790000       1.98040000      -0.11580000
H       -0.58000000       1.94460000      -0.82880000
H       -0.38660000       1.96700000       0.92790000
H       -0.97340000      -0.31430000       0.11140000
H       -0.08100000      -0.33110000      -2.11400000
H        1.55880000      -0.01690000      -1.56270000
H        1.62180000      -2.38290000      -3.17920000
H        1.16560000      -3.85230000      -2.29240000
H       -0.07760000      -2.76960000      -2.95600000
H        1.38820000      -3.60580000       0.12880000
H        0.78840000       0.05220000       2.00390000
