24
Properties=species:S:1:pos:R:3 gdb_88586=T pbc="F F F"
C       -0.01030000       1.08210000      -1.96180000
C       -0.01790000      -0.12310000      -1.04400000
C        1.21910000      -0.64600000      -0.34660000
C        2.58060000       0.00360000      -0.47960000
C        0.09450000      -0.02500000       0.46980000
C        0.24930000       1.29210000       1.16670000
C       -0.70320000       1.69670000       2.24350000
N        0.68930000       1.40770000       2.56490000
C        0.96770000       0.20350000       3.33300000
H        0.72510000       1.83640000      -1.67370000
H        0.22360000       0.77880000      -2.98830000
H       -0.99140000       1.56960000      -1.97670000
H       -0.70560000      -0.89500000      -1.38200000
H        1.27570000      -1.73000000      -0.27630000
H        2.52860000       1.09380000      -0.52130000
H        3.21770000      -0.25530000       0.37330000
H        3.08970000      -0.33760000      -1.38800000
H       -0.52350000      -0.73470000       1.01130000
H        0.65770000       2.09020000       0.55210000
H       -1.02100000       2.73040000       2.35840000
H       -1.45420000       0.96000000       2.53110000
H        0.27530000      -0.63280000       3.15060000
H        1.98330000      -0.14130000       3.11270000
H        0.91940000       0.45160000       4.39840000
