18
Properties=species:S:1:pos:R:3 gdb_60517=T pbc="F F F"
C        0.14270000       1.26570000       0.34780000
C        0.04300000      -0.19600000      -0.14980000
C       -1.38530000      -0.70060000      -0.14400000
C       -1.67690000      -2.13150000       0.11140000
N       -2.01460000      -1.10830000       1.12040000
C        0.64070000      -0.26980000      -1.54270000
O        0.01660000      -0.16270000      -2.57290000
C        2.16230000      -0.46750000      -1.65050000
O        2.88470000      -0.62570000      -0.70190000
H        1.18110000       1.60760000       0.37150000
H       -0.43070000       1.93340000      -0.30240000
H       -0.26470000       1.34120000       1.35960000
H        0.66340000      -0.81810000       0.50700000
H       -2.05250000      -0.15320000      -0.80460000
H       -2.52980000      -2.60840000      -0.36200000
H       -0.83850000      -2.79610000       0.30690000
H       -1.32080000      -1.12430000       1.86550000
H        2.52070000      -0.45810000      -2.70150000
