16
Properties=species:S:1:pos:R:3 gdb_68736=T pbc="F F F"
O       -0.09710000       1.46340000      -0.07530000
C       -0.05570000       0.08710000      -0.07990000
C       -0.26290000      -0.76440000       1.14270000
C       -1.20320000      -0.95530000      -0.03050000
C       -2.61250000      -0.80360000       0.02210000
C       -3.80850000      -0.66890000       0.04350000
N       -0.52770000      -1.81710000      -1.03750000
C       -0.44850000      -0.99880000      -2.26220000
C        0.53870000      -0.73500000      -1.18760000
H        0.34990000       1.78790000       0.71300000
H        0.42620000      -1.56540000       1.39830000
H       -0.71060000      -0.24650000       1.98600000
H       -4.86400000      -0.55740000       0.06810000
H       -0.10530000      -1.56260000      -3.12420000
H       -1.23660000      -0.27780000      -2.46020000
H        1.58730000      -1.00050000      -1.28290000
