15
Properties=species:S:1:pos:R:3 gdb_48831=T pbc="F F F"
O       -0.32510000       0.10460000       0.25790000
C       -0.02480000       1.26850000       0.27130000
C        1.34460000       1.78460000      -0.01230000
O        1.56750000       3.18300000       0.28830000
C        1.60280000       2.79760000      -1.07270000
C        3.00710000       2.63010000      -1.62930000
C        3.73530000       1.74460000      -0.59710000
C        2.63380000       0.99270000       0.16610000
O        2.75540000      -0.03310000       0.77430000
H       -0.75460000       2.07990000       0.48900000
H        0.79430000       3.18200000      -1.69060000
H        2.94690000       2.13570000      -2.60440000
H        3.48820000       3.60070000      -1.77960000
H        4.42980000       1.02910000      -1.04020000
H        4.29830000       2.34450000       0.12490000
