15
Properties=species:S:1:pos:R:3 gdb_126745=T pbc="F F F"
C       -0.07350000       1.61230000       0.04970000
C       -0.01750000       0.08890000      -0.04550000
N       -1.35000000      -0.51430000      -0.07060000
C       -1.96060000      -0.99110000      -1.18500000
N       -3.16600000      -1.44400000      -1.20010000
C       -3.86790000      -1.32000000      -0.00020000
O       -5.06530000      -1.32450000       0.08730000
N       -3.07830000      -1.21150000       1.21470000
N       -1.90640000      -0.77110000       1.16390000
H        0.94090000       2.01970000       0.07960000
H       -0.59300000       2.04410000      -0.81070000
H       -0.59530000       1.91970000       0.95990000
H        0.50260000      -0.23200000      -0.95310000
H        0.50730000      -0.33660000       0.81320000
H       -1.35130000      -1.00670000      -2.08950000
