23
Properties=species:S:1:pos:R:3 gdb_98185=T pbc="F F F"
C        0.05070000       1.49700000       0.20260000
C       -0.10260000      -0.01290000       0.35960000
C       -1.43200000      -0.53300000      -0.15190000
O       -2.27160000       0.19580000      -0.63190000
C       -1.72080000      -2.05340000      -0.05400000
C       -2.97540000      -2.23590000       0.81800000
C       -1.95520000      -2.57740000      -1.48160000
O       -0.56400000      -2.63590000       0.54570000
C       -0.56760000      -4.03150000       0.75220000
H        1.02170000       1.82580000       0.58380000
H       -0.02720000       1.79280000      -0.84690000
H       -0.73330000       2.03020000       0.74660000
H        0.69170000      -0.56390000      -0.15920000
H       -0.00140000      -0.33080000       1.40480000
H       -3.77830000      -1.60770000       0.42730000
H       -3.31660000      -3.27480000       0.81580000
H       -2.77060000      -1.93980000       1.85160000
H       -1.03230000      -2.52130000      -2.06720000
H       -2.29960000      -3.61540000      -1.47530000
H       -2.71580000      -1.96410000      -1.96860000
H        0.39230000      -4.27660000       1.21370000
H       -1.36930000      -4.35560000       1.42950000
H       -0.65420000      -4.59650000      -0.18570000
