21
Properties=species:S:1:pos:R:3 gdb_106171=T pbc="F F F"
C        0.13650000       1.49400000      -0.37330000
C        0.00040000       0.07230000       0.18800000
C       -1.40120000      -0.46420000       0.15130000
C       -1.86030000      -1.91270000       0.09130000
C       -2.84100000      -2.23580000       1.22000000
C       -3.14870000      -0.84930000       1.85480000
C       -2.69690000       0.12450000       0.77320000
O       -3.45530000      -0.17480000      -0.44820000
C       -2.32790000      -0.90050000      -0.94150000
H        1.17620000       1.83320000      -0.33360000
H       -0.19570000       1.53740000      -1.41530000
H       -0.46730000       2.20790000       0.19640000
H        0.64930000      -0.60830000      -0.37760000
H        0.37380000       0.04770000       1.22160000
H       -1.15220000      -2.65990000      -0.25290000
H       -3.75160000      -2.70370000       0.83460000
H       -2.39850000      -2.92660000       1.94320000
H       -4.20590000      -0.71900000       2.10250000
H       -2.56370000      -0.68760000       2.76860000
H       -2.73920000       1.18820000       1.01660000
H       -2.21650000      -0.99920000      -2.01590000
