16
Properties=species:S:1:pos:R:3 gdb_45495=T pbc="F F F"
O       -0.02490000      -0.02920000      -0.11570000
C       -0.00890000       1.15730000      -0.00820000
O       -1.13900000       1.92200000       0.06050000
C       -0.78920000       3.25720000       0.48430000
C       -0.84790000       3.30900000       2.01490000
C        0.43370000       2.55310000       2.46120000
C        1.40490000       2.72940000       1.29340000
C        0.70670000       3.36910000       0.14980000
N        1.16090000       1.98510000       0.01680000
H       -1.44550000       3.95580000      -0.03340000
H       -0.79650000       4.35500000       2.33720000
H       -1.77300000       2.87590000       2.40240000
H        0.86000000       2.97520000       3.37440000
H        0.23640000       1.49520000       2.66260000
H        2.46030000       2.88010000       1.49140000
H        1.11410000       4.11670000      -0.52050000
