22
Properties=species:S:1:pos:R:3 gdb_117770=T pbc="F F F"
C       -0.12870000       1.58200000      -0.07080000
C       -0.01020000       0.05810000       0.03130000
C        0.74520000      -0.53590000      -1.16330000
C        0.79330000      -2.08100000      -1.18810000
C        1.49900000      -2.67270000       0.04710000
O       -0.55830000      -2.50190000      -1.30040000
C       -0.79260000      -3.89470000      -1.42470000
C        1.54460000      -2.49370000      -2.40560000
N        2.12330000      -2.82030000      -3.35140000
H        0.85790000       2.05730000      -0.10450000
H       -0.66920000       1.87770000      -0.97650000
H       -0.66720000       1.99340000       0.78820000
H        0.50070000      -0.20070000       0.96610000
H       -1.00610000      -0.39280000       0.08160000
H        0.26570000      -0.21430000      -2.09410000
H        1.77410000      -0.15910000      -1.18880000
H        0.89680000      -2.48090000       0.93780000
H        1.64630000      -3.74990000      -0.05220000
H        2.48170000      -2.21170000       0.17620000
H       -0.23000000      -4.32790000      -2.26210000
H       -0.54570000      -4.44240000      -0.50620000
H       -1.86090000      -4.00560000      -1.62120000
