13
Properties=species:S:1:pos:R:3 gdb_129658=T pbc="F F F"
N       -0.03150000       1.40310000       0.12940000
C       -0.04610000       0.01550000       0.04180000
C       -1.20040000      -0.71380000       0.00500000
N       -2.46030000      -0.17190000       0.00100000
C       -1.10220000      -2.16260000      -0.07730000
O       -2.05850000      -2.90170000      -0.12640000
O        0.16460000      -2.66870000      -0.08090000
N        1.34550000      -1.83360000       0.00590000
N        1.17920000      -0.60710000       0.04950000
H        0.90090000       1.78290000       0.03000000
H       -0.68610000       1.85800000      -0.49590000
H       -2.58550000       0.67580000       0.53680000
H       -3.18520000      -0.86680000       0.12790000
