12
Properties=species:S:1:pos:R:3 gdb_123316=T pbc="F F F"
C       -0.03080000      -1.19110000      -0.00200000
C       -0.03270000       0.01140000       0.00390000
C        0.00780000       1.42770000       0.01030000
N       -1.11670000       2.16560000       0.02980000
N       -0.69720000       3.42710000       0.03010000
C        0.66440000       3.54350000       0.01140000
C        1.15760000       2.25210000      -0.00190000
C        1.31670000       4.79830000       0.00830000
N        1.83480000       5.83380000       0.00610000
H       -0.03990000      -2.25310000      -0.00710000
H       -1.37200000       4.17560000       0.04330000
H        2.19070000       1.94990000      -0.01800000
