21
Properties=species:S:1:pos:R:3 gdb_31658=T pbc="F F F"
C       -0.04150000       1.50500000       0.16800000
C       -0.02010000      -0.02540000      -0.00410000
C        0.69100000      -0.49000000      -1.24160000
C        0.12350000      -0.85830000      -2.44420000
N        1.11280000      -1.19620000      -3.32600000
C        0.91640000      -1.75240000      -4.64370000
C        2.33500000      -1.05190000      -2.69810000
C        2.10590000      -0.61670000      -1.41020000
N        3.06040000      -0.41150000      -0.39000000
H        0.97160000       1.92080000       0.21060000
H       -0.55080000       1.98300000      -0.67470000
H       -0.55800000       1.79390000       1.08980000
H        0.45280000      -0.47810000       0.87720000
H       -1.05270000      -0.39350000      -0.01770000
H       -0.91460000      -0.91350000      -2.73540000
H        1.64090000      -1.32870000      -5.34640000
H        1.02500000      -2.84450000      -4.65120000
H       -0.08680000      -1.50180000      -4.99590000
H        3.25380000      -1.27920000      -3.21560000
H        4.00420000      -0.37510000      -0.75460000
H        2.88880000       0.44090000       0.12990000
