20
Properties=species:S:1:pos:R:3 gdb_105905=T pbc="F F F"
C        1.33820000      -0.44730000       1.44370000
C        0.41580000       0.08200000       0.33850000
C        0.87230000      -0.30380000      -1.03710000
N        2.20930000       0.04430000      -1.62630000
C        2.42170000       1.46220000      -1.90540000
C        1.56150000      -0.72630000      -2.72480000
C        0.90250000      -1.70940000      -1.72150000
O       -0.43390000      -1.60180000      -2.28600000
C        0.09600000      -0.25190000      -2.41620000
H        1.36060000      -1.54170000       1.44560000
H        2.36390000      -0.09660000       1.29840000
H        0.99700000      -0.11610000       2.42880000
H       -0.60290000      -0.30320000       0.46930000
H        0.34430000       1.17580000       0.39950000
H        2.65990000       1.98580000      -0.97410000
H        3.28070000       1.57220000      -2.57520000
H        1.55860000       1.96870000      -2.37160000
H        2.03740000      -0.93360000      -3.68400000
H        1.25120000      -2.67050000      -1.34730000
H       -0.54590000       0.50220000      -2.87170000
