15
Properties=species:S:1:pos:R:3 gdb_125333=T pbc="F F F"
C       -0.01690000       1.47330000       0.05790000
C       -0.00050000      -0.01230000      -0.04720000
C       -0.04660000      -0.81880000      -1.14720000
N       -0.00250000      -2.12240000      -0.67480000
N       -0.00850000      -3.40030000      -1.14510000
C        0.06180000      -4.08260000      -0.00050000
N        0.11240000      -3.36430000       1.16260000
C        0.06880000      -2.13360000       0.67900000
N        0.07110000      -0.83090000       1.08700000
H        0.88870000       1.85640000       0.54310000
H       -0.07530000       1.91610000      -0.93850000
H       -0.87790000       1.83040000       0.63510000
H       -0.10510000      -0.57250000      -2.19220000
H        0.07740000      -5.16260000      -0.00670000
H        0.11620000      -0.51740000       2.04000000
