23
Properties=species:S:1:pos:R:3 gdb_90731=T pbc="F F F"
C       -0.64070000       1.05740000      -0.26260000
C        0.33040000      -0.10860000      -0.14930000
C        1.77730000       0.09840000      -0.68720000
C        2.33440000      -0.52660000       0.62620000
C        0.91040000      -0.43760000       1.26370000
C        0.58530000      -1.82540000       1.84780000
C        1.66100000      -2.69970000       1.24420000
C        2.60540000      -2.01390000       0.59210000
C        3.81510000      -2.57190000      -0.09190000
H       -0.21180000       1.96930000       0.16940000
H       -0.88850000       1.27140000      -1.30850000
H       -1.57840000       0.84900000       0.26550000
H       -0.11980000      -1.00650000      -0.58680000
H        2.03590000      -0.40160000      -1.62530000
H        2.03410000       1.15860000      -0.78070000
H        3.15790000       0.02670000       1.09280000
H        0.76310000       0.38050000       1.97290000
H        0.62810000      -1.84180000       2.94620000
H       -0.42760000      -2.15570000       1.57850000
H        1.65960000      -3.78020000       1.35430000
H        3.84820000      -3.66330000      -0.03220000
H        3.84110000      -2.28890000      -1.15190000
H        4.73770000      -2.17870000       0.35490000
