21
Properties=species:S:1:pos:R:3 gdb_64164=T pbc="F F F"
C       -0.43720000       1.47480000       0.17800000
C       -0.03970000       0.01710000      -0.02940000
C       -1.21540000      -0.78870000      -0.58220000
C        1.26910000      -0.25000000      -0.80800000
O        1.78270000      -1.10420000       0.23190000
C        0.72590000      -0.71180000       1.15490000
C        1.29840000       0.17900000       2.26060000
C        0.06150000      -1.86860000       1.74700000
C       -0.48310000      -2.80510000       2.26870000
H        0.39210000       2.09180000       0.53200000
H       -0.78760000       1.90430000      -0.76720000
H       -1.25760000       1.56160000       0.89900000
H       -1.54850000      -0.35760000      -1.53290000
H       -0.93910000      -1.83150000      -0.75610000
H       -2.06280000      -0.77930000       0.11050000
H        1.16660000      -0.78200000      -1.76070000
H        1.90290000       0.63500000      -0.95970000
H        1.86280000       1.01010000       1.83190000
H        0.50330000       0.57660000       2.89820000
H        1.97630000      -0.41170000       2.88200000
H       -0.96140000      -3.64060000       2.71750000
