15
Properties=species:S:1:pos:R:3 gdb_123558=T pbc="F F F"
C        0.02590000       1.45900000       0.01000000
C        1.27430000       0.65740000       0.03630000
C        1.99020000       0.37860000       1.38600000
C        0.89580000      -0.36720000       2.08250000
C       -0.19090000      -0.55530000       1.27410000
N       -1.16000000      -1.23140000       1.92580000
N       -0.71770000      -1.48190000       3.13450000
N        0.53490000      -0.95380000       3.24010000
N       -0.06410000      -0.02140000      -0.03700000
H       -0.29910000       1.94550000       0.92630000
H       -0.26650000       1.95990000      -0.90780000
H        1.87440000       0.59350000      -0.86480000
H        2.88870000      -0.22900000       1.22700000
H        2.30480000       1.29810000       1.89240000
H        1.03390000      -1.07310000       4.10670000
