18
Properties=species:S:1:pos:R:3 gdb_91303=T pbc="F F F"
C        0.08380000       1.34870000      -0.55180000
C       -0.04020000       0.00200000       0.12720000
O        0.33640000      -1.11210000      -0.73420000
C        1.18550000      -1.67160000       0.27580000
C        2.66560000      -1.24290000       0.11450000
C        2.43710000      -0.13320000       1.20200000
C        2.89310000       1.22340000       0.94470000
N        3.27850000       2.29630000       0.74950000
C        0.91580000      -0.48810000       1.24610000
H        1.09060000       1.53120000      -0.93050000
H       -0.61210000       1.38850000      -1.39590000
H       -0.17560000       2.15460000       0.14220000
H       -1.07810000      -0.14080000       0.46120000
H        0.96800000      -2.72120000       0.48730000
H        3.41990000      -1.98010000       0.39590000
H        2.87550000      -0.86680000      -0.88720000
H        2.88720000      -0.44870000       2.14800000
H        0.48360000      -0.57760000       2.24120000
