19
Properties=species:S:1:pos:R:3 gdb_52113=T pbc="F F F"
O       -0.39370000       0.40900000       0.69360000
C       -0.00020000       1.14540000      -0.17100000
C        1.27470000       1.96220000      -0.06370000
O        1.47610000       2.61970000      -1.29790000
C        2.55250000       3.48640000      -1.30570000
C        2.48240000       4.84680000      -0.66840000
C        2.72740000       4.72670000      -2.15990000
C        4.19660000       4.35950000      -2.40730000
C        4.00530000       3.05930000      -1.55260000
H       -0.54680000       1.29610000      -1.12810000
H        1.16740000       2.68150000       0.76390000
H        2.10910000       1.29170000       0.19220000
H        1.47720000       5.16110000      -0.40520000
H        3.26410000       5.21030000      -0.00420000
H        2.04860000       5.16730000      -2.87920000
H        4.42170000       4.14020000      -3.45280000
H        4.93050000       5.07960000      -2.03250000
H        4.64330000       2.93530000      -0.67180000
H        4.06440000       2.15800000      -2.16700000
