19
Properties=species:S:1:pos:R:3 gdb_54917=T pbc="F F F"
C       -0.15490000       1.48140000      -0.27710000
C        0.08360000       0.00910000       0.00320000
O        1.19960000      -0.45380000       0.09380000
C       -1.15880000      -0.85670000       0.12460000
C       -1.51550000      -1.52200000      -1.25230000
C       -0.83560000      -2.83770000      -0.75570000
C       -0.89510000      -2.27100000       0.70010000
C       -1.49150000      -4.09500000      -1.04350000
C       -2.05980000      -5.13030000      -1.27280000
H        0.78740000       1.97830000      -0.51020000
H       -0.86430000       1.61200000      -1.10170000
H       -0.60590000       1.95270000       0.60440000
H       -1.97270000      -0.28250000       0.57420000
H       -2.59360000      -1.64390000      -1.37040000
H       -1.10530000      -1.06760000      -2.15740000
H        0.20560000      -2.86580000      -1.08920000
H        0.01400000      -2.38330000       1.29090000
H       -1.75490000      -2.65760000       1.24990000
H       -2.55070000      -6.04900000      -1.47800000
