14
Properties=species:S:1:pos:R:3 gdb_49035=T pbc="F F F"
O       -0.19870000       0.19670000      -0.61740000
C        0.05660000       1.06150000       0.18640000
C        1.27400000       1.89130000       0.13920000
C        1.69130000       3.03770000       1.05730000
O        2.15250000       3.83380000      -0.07420000
C        1.72680000       2.84490000      -0.97860000
C        2.43280000       1.53550000      -0.79800000
C        3.78280000       1.45500000      -0.31090000
N        4.86340000       1.39320000       0.09530000
H       -0.64090000       1.30920000       1.01580000
H        0.83970000       3.52920000       1.53840000
H        2.48820000       2.84450000       1.78040000
H        1.23940000       3.14290000      -1.89990000
H        2.13580000       0.76820000      -1.50750000
