15
Properties=species:S:1:pos:R:3 gdb_1935=T pbc="F F F"
O       -0.11920000       1.42370000      -0.00240000
C       -0.04740000       0.04430000      -0.07400000
C       -0.30240000      -0.84040000       1.13980000
C       -1.18090000      -0.97990000      -0.07820000
O       -2.55950000      -0.89600000      -0.08900000
C       -0.47000000      -1.79350000      -1.15120000
C        0.69820000      -0.74480000      -1.15210000
H        0.61780000       1.74200000       0.53160000
H        0.39280000      -1.61830000       1.45650000
H       -0.77160000      -0.29630000       1.95690000
H       -2.83970000      -0.29890000       0.61240000
H       -0.21140000      -2.82220000      -0.88200000
H       -1.02260000      -1.79480000      -2.09280000
H        0.75730000      -0.19730000      -2.09530000
H        1.69390000      -1.11850000      -0.88830000
