17
Properties=species:S:1:pos:R:3 gdb_16728=T pbc="F F F"
N        0.69780000      -0.81460000       1.02740000
C        0.37030000       0.19010000       0.55720000
C       -0.04960000       1.45490000      -0.04590000
C       -0.90370000       2.32390000       0.93330000
C        0.06740000       3.32120000       1.54370000
C        1.36180000       2.79490000       2.11320000
C        1.32850000       3.34100000       0.70700000
C        1.16530000       2.35630000      -0.43930000
H       -0.63390000       1.19330000      -0.93290000
H       -1.66510000       2.85850000       0.35550000
H       -1.42490000       1.70570000       1.66960000
H       -0.34440000       4.23520000       1.95640000
H        1.84950000       3.40810000       2.86300000
H        1.48420000       1.72880000       2.27250000
H        1.84890000       4.26960000       0.50140000
H        2.05960000       1.76020000      -0.64200000
H        0.91740000       2.89890000      -1.35770000
