21
Properties=species:S:1:pos:R:3 gdb_73613=T pbc="F F F"
C        0.10760000       1.55240000      -0.05380000
C       -0.03480000       0.05310000       0.07760000
C       -1.43630000      -0.53780000      -0.09490000
C       -1.46850000      -1.87290000       0.69240000
C       -0.25180000      -1.83700000       1.65470000
C        0.67640000      -0.75530000       1.11990000
C        1.17520000      -0.80240000      -0.33000000
C        1.13650000      -1.98510000      -1.21690000
O        2.00560000      -2.23310000      -2.02160000
H        1.12500000       1.88030000       0.17950000
H       -0.12350000       1.88630000      -1.07170000
H       -0.57780000       2.06880000       0.62860000
H       -2.14900000       0.17580000       0.33550000
H       -1.72210000      -0.66490000      -1.14450000
H       -2.40770000      -1.99150000       1.23910000
H       -1.40330000      -2.72820000       0.01550000
H       -0.56770000      -1.54430000       2.66240000
H        0.23080000      -2.81500000       1.75020000
H        1.36210000      -0.28610000       1.81850000
H        2.07880000      -0.22480000      -0.50380000
H        0.25920000      -2.65690000      -1.12260000
