17
Properties=species:S:1:pos:R:3 gdb_15377=T pbc="F F F"
O       -0.11370000       1.29520000      -0.72260000
C        0.07650000       0.18330000       0.13460000
C       -1.23800000      -0.51180000       0.40680000
N       -1.82440000      -1.20580000      -0.75720000
C       -1.44610000      -1.98640000       0.43570000
C       -0.35580000      -3.02750000       0.26150000
C       -0.90040000      -4.27100000      -0.41420000
O       -0.79730000      -5.38910000       0.01970000
H       -0.54510000       0.94850000      -1.51280000
H        0.80730000      -0.52110000      -0.28680000
H        0.49530000       0.57750000       1.06640000
H       -1.92280000       0.07250000       1.01930000
H       -2.82990000      -1.06670000      -0.79330000
H       -2.26190000      -2.31970000       1.07640000
H        0.43410000      -2.62740000      -0.38420000
H        0.08410000      -3.31110000       1.22210000
H       -1.42530000      -4.06880000      -1.37470000
