17
Properties=species:S:1:pos:R:3 gdb_6509=T pbc="F F F"
C       -0.03640000       1.51580000       0.07460000
C       -0.00420000       0.00050000       0.00570000
C       -1.24750000      -0.62730000      -0.59540000
C        1.32220000      -0.67910000      -0.23720000
C        0.69450000      -0.72470000       1.15090000
O        1.23070000       0.07650000       2.16250000
C        0.16530000      -1.98680000       1.62400000
N       -0.23290000      -2.99850000       2.02020000
H        0.85130000       1.91920000       0.56270000
H       -0.09980000       1.93100000      -0.93710000
H       -0.91350000       1.85880000       0.63340000
H       -1.37200000      -0.29060000      -1.63040000
H       -1.19940000      -1.71890000      -0.59930000
H       -2.14210000      -0.33340000      -0.03630000
H        1.34520000      -1.59440000      -0.81840000
H        2.20780000      -0.05730000      -0.31580000
H        2.03080000      -0.34850000       2.49260000
