18
Properties=species:S:1:pos:R:3 gdb_88650=T pbc="F F F"
C       -0.24090000       1.59290000      -0.02070000
N       -0.01870000       0.15310000      -0.04530000
C        1.31090000      -0.33160000      -0.38130000
C        0.77030000      -0.50010000       0.99960000
C        1.37730000       0.24640000       2.15240000
C        0.61060000       0.25400000       3.49140000
C        1.80540000      -0.55470000       3.99650000
O        2.17240000      -1.05330000       5.00970000
O        2.45060000      -0.54710000       2.78380000
H        0.64500000       2.19500000       0.23530000
H       -0.57510000       1.90440000      -1.01500000
H       -1.03860000       1.82790000       0.69120000
H        1.36060000      -1.17850000      -1.06010000
H        2.10530000       0.40370000      -0.51100000
H        0.38250000      -1.47760000       1.28680000
H        1.78170000       1.21590000       1.85790000
H        0.48120000       1.22180000       3.97780000
H       -0.33500000      -0.29170000       3.49940000
