21
Properties=species:S:1:pos:R:3 gdb_37388=T pbc="F F F"
C       -0.03600000       1.49950000       0.18200000
C        1.29440000       0.80330000      -0.04650000
C        0.00520000       0.01410000      -0.03740000
C       -0.19280000      -0.72220000      -1.35270000
C        1.01550000      -1.71730000      -1.40420000
C        1.77180000      -0.61540000      -2.16070000
C        1.95490000       0.79670000      -1.42750000
C        1.01400000       1.39060000      -2.51510000
C        0.41760000      -0.01720000      -2.64290000
H       -0.24230000       1.81850000       1.19870000
H       -0.44910000       2.16210000      -0.56600000
H        1.96640000       0.73240000       0.80250000
H       -0.21280000      -0.60470000       0.83000000
H       -1.19890000      -1.13160000      -1.46760000
H        1.39600000      -2.08970000      -0.44770000
H        0.83210000      -2.56430000      -2.07320000
H        2.58160000      -0.86240000      -2.84950000
H        2.97200000       1.19130000      -1.38770000
H        0.40110000       2.26330000      -2.28440000
H        1.58010000       1.60820000      -3.42760000
H       -0.06770000      -0.33360000      -3.56850000
