19
Properties=species:S:1:pos:R:3 gdb_90411=T pbc="F F F"
C       -0.09720000       1.59510000       0.02040000
C        0.16250000       0.10320000       0.03990000
O        1.30970000      -0.34630000      -0.76000000
C        1.76920000      -1.19570000       0.30490000
C        2.21000000      -0.32220000       1.44360000
C        2.86700000      -0.99370000       2.62460000
O        2.78450000       0.92490000       1.16960000
C        0.72700000      -0.60410000       1.27020000
O       -0.03230000      -1.11800000       2.29860000
H        0.74460000       2.15340000       0.43190000
H       -0.29760000       1.93580000      -1.00060000
H       -0.98310000       1.81240000       0.62660000
H       -0.72480000      -0.43870000      -0.32340000
H        2.12130000      -2.19040000       0.05320000
H        3.93790000      -1.10810000       2.43450000
H        2.73930000      -0.38340000       3.52340000
H        2.42690000      -1.97380000       2.81970000
H        2.70440000       1.04520000       0.21320000
H       -0.69210000      -1.71610000       1.92720000
