18
Properties=species:S:1:pos:R:3 gdb_112683=T pbc="F F F"
C        0.51270000       1.07340000      -0.32230000
O        0.48120000      -0.32520000      -0.06480000
C        0.51930000      -0.65740000       1.28770000
C        0.45770000      -2.18140000       1.42450000
C        1.93090000      -2.58510000       1.33920000
N        2.33460000      -2.89670000      -0.03630000
C        2.64630000      -1.33490000       1.87800000
O        3.78570000      -1.22270000       2.22270000
O        1.77750000      -0.27340000       1.86940000
H        1.44870000       1.52290000       0.02550000
H        0.42500000       1.19650000      -1.40300000
H       -0.33070000       1.57990000       0.16810000
H       -0.24920000      -0.10780000       1.84550000
H        0.03980000      -2.44210000       2.39980000
H       -0.15260000      -2.62960000       0.64020000
H        2.17900000      -3.43840000       1.97420000
H        2.08110000      -2.11810000      -0.64020000
H        3.34690000      -2.98530000      -0.07560000
