13
Properties=species:S:1:pos:R:3 gdb_9865=T pbc="F F F"
C       -0.02850000       1.51220000       0.02180000
C       -0.01690000      -0.00010000      -0.05610000
C        0.76470000      -0.70590000      -1.09780000
O        1.23780000      -0.63660000       0.24160000
C       -1.17260000      -0.66710000       0.49420000
C       -2.15470000      -1.19170000       0.96400000
C       -3.26200000      -1.79380000       1.48790000
N       -4.20640000      -2.30460000       1.93150000
H        0.88920000       1.90950000      -0.41750000
H       -0.88920000       1.91940000      -0.51650000
H       -0.08870000       1.83940000       1.06340000
H        0.44730000      -1.69020000      -1.43540000
H        1.31060000      -0.10620000      -1.82480000
