18
Properties=species:S:1:pos:R:3 gdb_65394=T pbc="F F F"
C        0.53990000       1.36960000      -0.33960000
C       -0.01760000      -0.02280000      -0.11400000
C        0.84930000      -1.22120000      -0.40940000
N        0.53470000      -0.84790000       0.95070000
C        1.47340000      -0.46190000       1.89320000
O        2.56370000      -0.96160000       2.02360000
C       -1.50380000      -0.12670000      -0.31600000
C       -2.36130000      -0.98120000       0.50940000
O       -2.31160000       0.43390000       0.72180000
H        1.62170000       1.39670000      -0.18260000
H        0.33440000       1.69720000      -1.36390000
H        0.06730000       2.08500000       0.34010000
H        0.39470000      -2.14170000      -0.76570000
H        1.86810000      -1.04460000      -0.74520000
H        1.07470000       0.31790000       2.56880000
H       -1.83560000       0.12670000      -1.32480000
H       -3.29580000      -1.35720000       0.09550000
H       -1.90680000      -1.58250000       1.29230000
