19
Properties=species:S:1:pos:R:3 gdb_111465=T pbc="F F F"
C       -0.03130000       1.54470000       0.16510000
C       -0.09950000       0.02360000       0.00000000
C        0.63600000      -0.50100000      -1.24910000
C        0.81890000      -2.00370000      -1.34450000
C       -0.41890000      -2.86860000      -1.52550000
C        0.35190000      -2.38930000      -2.71800000
O       -0.16800000      -1.24560000      -3.36990000
C       -0.07760000      -0.14310000      -2.56520000
O       -0.52710000       0.91410000      -2.90110000
H        1.00680000       1.88060000       0.26890000
H       -0.46370000       2.05090000      -0.69990000
H       -0.57330000       1.85920000       1.06210000
H        0.34560000      -0.46500000       0.87500000
H       -1.14550000      -0.30260000      -0.03250000
H        1.62240000      -0.01910000      -1.29340000
H        1.70220000      -2.45270000      -0.90750000
H       -0.32790000      -3.91520000      -1.25690000
H       -1.40100000      -2.43920000      -1.35650000
H        0.87240000      -3.05300000      -3.39580000
