14
Properties=species:S:1:pos:R:3 gdb_21216=T pbc="F F F"
C        0.01350000       1.41780000       0.03010000
N       -0.00440000      -0.04070000       0.10140000
C       -1.21690000      -0.66640000       0.01250000
N       -2.36520000      -0.06190000       0.00090000
O       -3.32720000      -1.13510000       0.00590000
C       -2.68740000      -2.34010000       0.00440000
N       -3.18270000      -3.50290000       0.03320000
N       -1.33270000      -2.03340000      -0.03790000
H        1.03430000       1.76120000       0.20660000
H       -0.34140000       1.80200000      -0.93440000
H       -0.63590000       1.81670000       0.81180000
H        0.73170000      -0.49870000      -0.41710000
H       -4.19820000      -3.45960000       0.06810000
H       -0.61860000      -2.70950000       0.16970000
