22
Properties=species:S:1:pos:R:3 gdb_60544=T pbc="F F F"
C        1.35040000       1.28570000      -0.53930000
C        0.32270000       0.25560000      -0.06860000
N        0.11850000      -0.74590000      -1.12250000
C       -1.22940000      -1.27660000      -1.30950000
C       -0.65180000      -0.31610000      -2.28560000
C        0.72020000      -0.45850000       1.22920000
C       -0.31950000      -1.38390000       1.82450000
C        2.13170000      -0.67180000       1.57530000
O        1.37770000       0.37510000       2.19800000
H        2.23970000       0.78960000      -0.93820000
H        0.92940000       1.90220000      -1.33790000
H        1.64160000       1.93540000       0.28790000
H       -0.62390000       0.78980000       0.14690000
H       -1.29320000      -2.33590000      -1.54230000
H       -2.02330000      -0.90430000      -0.66430000
H       -1.06370000       0.69210000      -2.28400000
H       -0.28300000      -0.65390000      -3.24980000
H       -1.27010000      -0.85830000       1.96870000
H       -0.50070000      -2.24450000       1.17520000
H        0.01810000      -1.74530000       2.79890000
H        2.39730000      -1.50350000       2.22700000
H        2.92360000      -0.34270000       0.90730000
