18
Properties=species:S:1:pos:R:3 gdb_16536=T pbc="F F F"
C        0.22180000       1.65560000       0.07930000
C        0.12790000       0.13890000      -0.00510000
C        0.70440000      -0.69580000      -1.19360000
C        2.10800000      -0.28230000      -1.71960000
C        2.78970000      -1.29870000      -0.75580000
C        1.39420000      -1.68490000      -0.17740000
C        0.96350000      -0.73520000       0.94960000
O        1.22540000      -0.66210000       2.11680000
H        1.24770000       2.00730000      -0.06470000
H       -0.41020000       2.13710000      -0.67370000
H       -0.10530000       1.99630000       1.06630000
H       -0.91790000      -0.17260000       0.13730000
H       -0.01910000      -1.02550000      -1.93850000
H        2.26020000      -0.51550000      -2.77550000
H        2.37620000       0.76640000      -1.56910000
H        3.26710000      -2.13030000      -1.27810000
H        3.50170000      -0.89660000      -0.03090000
H        1.15690000      -2.74310000      -0.06120000
