11
Properties=species:S:1:pos:R:3 gdb_507=T pbc="F F F"
C        0.00720000       1.48690000       0.02830000
C        0.00150000       0.03320000      -0.03500000
C       -0.00670000      -1.16760000      -0.08610000
C       -0.01230000      -2.62690000      -0.14970000
C       -1.30440000      -3.21590000       0.22900000
N       -2.31430000      -3.69120000       0.52430000
H        0.76050000       1.84990000       0.73560000
H        0.22770000       1.92540000      -0.95060000
H       -0.96680000       1.86760000       0.35320000
H        0.23410000      -2.97150000      -1.16250000
H        0.75840000      -3.04640000       0.51000000
