18
Properties=species:S:1:pos:R:3 gdb_50562=T pbc="F F F"
O        0.10560000       0.16880000       0.84060000
C        0.08970000       1.27960000       0.34900000
N        1.19520000       1.97440000      -0.01310000
C        2.54440000       1.41830000       0.15590000
C        3.42470000       2.34550000      -0.69320000
C        2.67310000       3.66710000      -0.64550000
C        3.21560000       4.89790000      -0.05850000
O        3.07480000       4.73910000      -1.47870000
C        1.18890000       3.31150000      -0.60140000
H       -0.84520000       1.83980000       0.14460000
H        2.83460000       1.43860000       1.21390000
H        2.56060000       0.37490000      -0.16580000
H        4.44930000       2.42080000      -0.32510000
H        3.46140000       1.99750000      -1.73160000
H        2.54520000       5.62590000       0.39630000
H        4.24130000       4.91610000       0.30750000
H        0.78330000       3.30990000      -1.62240000
H        0.60570000       4.02080000      -0.00570000
