18
Properties=species:S:1:pos:R:3 gdb_22567=T pbc="F F F"
C       -0.77850000       1.23460000       0.18020000
C       -0.10580000      -0.10100000      -0.09410000
C        0.88630000      -0.22300000      -1.31210000
O        1.47810000       1.00110000      -1.64960000
C        1.85070000      -1.07110000      -0.40560000
O        3.20250000      -0.69150000      -0.51000000
C        1.06110000      -0.53290000       0.77270000
N        1.35630000      -0.24680000       1.96980000
O        2.66290000      -0.72930000       2.27420000
H       -0.04800000       2.04300000       0.11390000
H       -1.56970000       1.42590000      -0.55120000
H       -1.22400000       1.24390000       1.17890000
H       -0.84610000      -0.90940000      -0.15070000
H        0.48850000      -0.72440000      -2.20120000
H        2.42400000       0.89580000      -1.46330000
H        1.71840000      -2.15150000      -0.55070000
H        3.53400000      -0.60860000       0.39470000
H        2.81150000      -0.37840000       3.15850000
