17
Properties=species:S:1:pos:R:3 gdb_62661=T pbc="F F F"
C       -0.16170000       1.57820000      -0.01600000
C       -0.04150000       0.06420000      -0.01330000
O       -1.29070000      -0.56600000      -0.25270000
C        1.18790000      -0.59260000      -0.68540000
C        2.09180000      -0.35530000       0.56990000
O        2.53690000      -1.73790000       0.65060000
C        1.13740000      -1.83480000       0.25370000
C        0.67820000      -0.62330000       1.16210000
O        0.35420000      -0.59580000       2.49350000
H        0.79610000       2.05970000       0.20180000
H       -0.49860000       1.94300000      -0.99450000
H       -0.88890000       1.90320000       0.73440000
H       -1.68640000      -0.17550000      -1.03880000
H        1.51390000      -0.58230000      -1.72260000
H        2.80280000       0.44140000       0.78200000
H        0.69740000      -2.81640000       0.09530000
H       -0.55670000      -0.90060000       2.58320000
