14
Properties=species:S:1:pos:R:3 gdb_5279=T pbc="F F F"
N       -0.16790000       1.31960000       0.18150000
C        0.04730000      -0.03600000       0.06520000
N        1.24330000      -0.49590000       0.00790000
C       -1.17640000      -0.85300000       0.05750000
C       -1.40030000      -2.19980000       0.03350000
C       -2.81650000      -2.38020000       0.02430000
C       -3.35500000      -1.13190000       0.04120000
O       -2.37640000      -0.19390000       0.06260000
H        0.63810000       1.88800000      -0.02780000
H       -1.05900000       1.68130000      -0.11440000
H        1.24120000      -1.51310000      -0.01710000
H       -0.64960000      -2.97410000       0.02540000
H       -3.35780000      -3.31280000       0.00780000
H       -4.36490000      -0.75620000       0.04210000
