21
Properties=species:S:1:pos:R:3 gdb_87173=T pbc="F F F"
C        2.01960000      -0.27890000      -3.33760000
C        1.85410000      -0.73980000      -1.90490000
O        2.80230000      -0.98120000      -1.19070000
C        0.41770000      -0.90200000      -1.39320000
C        0.01450000      -2.37090000      -1.24840000
C        0.79370000      -3.16860000      -0.21850000
C       -1.46400000      -2.69790000      -1.40270000
C       -0.47730000      -3.09960000      -2.47200000
O       -0.46900000      -2.40590000      -3.69030000
H        1.44730000      -0.93410000      -4.00160000
H        1.60130000       0.72910000      -3.45050000
H        3.07550000      -0.26910000      -3.61100000
H        0.36380000      -0.42580000      -0.40730000
H       -0.27840000      -0.39430000      -2.06370000
H        0.62130000      -2.76770000       0.78700000
H        0.47830000      -4.21680000      -0.21670000
H        1.86830000      -3.12630000      -0.40930000
H       -1.89400000      -3.46670000      -0.76880000
H       -2.13410000      -1.87920000      -1.64490000
H       -0.21720000      -4.15480000      -2.55620000
H       -1.25690000      -2.65620000      -4.18360000
