14
Properties=species:S:1:pos:R:3 gdb_2328=T pbc="F F F"
O       -0.48640000       1.30630000      -0.35860000
C       -0.22390000      -0.04380000      -0.14660000
C       -0.27050000      -0.65430000       1.23460000
C       -1.35350000      -0.96890000       0.23620000
O       -2.58730000      -0.33870000       0.50410000
C       -3.38870000      -0.14550000      -0.57520000
N       -4.49160000       0.44550000      -0.42890000
H       -1.27750000       1.53820000       0.14300000
H        0.52570000      -0.39970000      -0.84520000
H        0.43230000      -1.43710000       1.49700000
H       -0.55690000      -0.00250000       2.05360000
H       -1.44120000      -1.96850000      -0.18160000
H       -2.96870000      -0.54820000      -1.50530000
H       -4.97590000       0.50620000      -1.32210000
