17
Properties=species:S:1:pos:R:3 gdb_23865=T pbc="F F F"
C       -0.02330000       1.54740000       0.01860000
C       -0.01560000       0.00820000       0.03340000
C        0.74680000      -0.51370000       1.26460000
C       -1.45510000      -0.53720000       0.02110000
C        0.70140000      -0.48590000      -1.22720000
F        1.97150000      -0.04730000      -1.28580000
F        0.74730000      -1.82880000      -1.28420000
F        0.08960000      -0.06630000      -2.34900000
H        0.99370000       1.94800000       0.01100000
H       -0.54940000       1.93220000      -0.85900000
H       -0.53080000       1.92190000       0.91220000
H        0.25100000      -0.17080000       2.17730000
H        0.77260000      -1.60640000       1.28030000
H        1.77630000      -0.14660000       1.27740000
H       -2.00370000      -0.18670000      -0.85700000
H       -1.46420000      -1.63030000       0.01630000
H       -1.98630000      -0.19550000       0.91410000
