17
Properties=species:S:1:pos:R:3 gdb_95677=T pbc="F F F"
O        0.32680000       0.83380000       0.96000000
C        0.04540000      -0.26750000       0.10000000
C       -1.45990000      -0.44020000      -0.05950000
O       -2.01020000       0.71390000      -0.67440000
C       -2.21370000       0.58740000      -2.06070000
C       -0.98420000       0.39280000      -2.95740000
O       -1.16080000       0.41620000      -4.15990000
C        0.38660000       0.21310000      -2.42090000
C        0.81430000      -0.07690000      -1.18480000
H       -0.14360000       1.58680000       0.57850000
H        0.44500000      -1.14940000       0.61720000
H       -1.70190000      -1.34890000      -0.62840000
H       -1.90650000      -0.52240000       0.93660000
H       -2.90330000      -0.24210000      -2.28500000
H       -2.70180000       1.50790000      -2.39420000
H        1.12550000       0.31500000      -3.21230000
H        1.89100000      -0.14680000      -1.04110000
