15
Properties=species:S:1:pos:R:3 gdb_132050=T pbc="F F F"
C       -0.01220000       1.53260000       0.00070000
C        0.00850000       0.03390000      -0.03040000
C        0.16600000      -0.70350000      -1.16540000
F        0.31400000      -0.08700000      -2.34260000
C        0.18560000      -2.12420000      -1.19530000
C        0.03700000      -2.77160000      -0.01140000
N       -0.12230000      -2.06650000       1.14000000
C       -0.15080000      -0.66160000       1.23820000
O       -0.30000000      -0.12940000       2.32730000
H        0.11480000       1.95190000      -0.99790000
H       -0.95540000       1.89300000       0.42440000
H        0.78110000       1.91210000       0.65320000
H        0.31430000      -2.65250000      -2.12840000
H        0.03710000      -3.85030000       0.07920000
H       -0.23330000      -2.54320000       2.02380000
