17
Properties=species:S:1:pos:R:3 gdb_52202=T pbc="F F F"
O       -0.07400000       0.05420000       0.25670000
C        0.08360000       1.20140000      -0.06490000
C        1.44360000       1.80700000      -0.36710000
O        1.25590000       3.17820000      -0.63810000
C        2.42380000       3.84840000      -0.97080000
C        2.93780000       3.78450000      -2.38060000
C        2.28250000       5.06490000      -1.85630000
C        0.99850000       5.46750000      -2.34860000
C       -0.06770000       5.83360000      -2.76620000
H       -0.75790000       1.91970000      -0.17330000
H        2.10800000       1.64410000       0.49670000
H        1.88810000       1.27700000      -1.22450000
H        3.15400000       3.91080000      -0.16270000
H        4.00710000       3.79440000      -2.55860000
H        2.35060000       3.21270000      -3.08940000
H        2.95830000       5.88300000      -1.62380000
H       -1.01390000       6.14960000      -3.12940000
