17
Properties=species:S:1:pos:R:3 gdb_110692=T pbc="F F F"
C        0.15760000       0.95770000       0.45290000
O       -0.19380000       0.05280000      -0.58340000
C       -1.37280000      -0.61870000      -0.33380000
C       -1.58920000      -1.99370000      -0.90980000
C       -0.35850000      -2.72730000      -1.33860000
C        0.45180000      -3.01140000      -0.31160000
C       -0.13760000      -2.50810000       0.95810000
O        0.32030000      -2.61140000       2.07360000
C       -1.44720000      -1.83170000       0.59270000
H        1.08640000       1.44260000       0.14660000
H       -0.61770000       1.72510000       0.59430000
H        0.31490000       0.43260000       1.40350000
H       -2.25400000       0.02670000      -0.29570000
H       -2.53590000      -2.20940000      -1.39200000
H       -0.15620000      -2.94150000      -2.38160000
H        1.42200000      -3.48830000      -0.35250000
H       -2.27320000      -1.90290000       1.28890000
