18
Properties=species:S:1:pos:R:3 gdb_22383=T pbc="F F F"
C       -0.12560000       1.50020000       0.06530000
C       -0.06950000      -0.00180000       0.09100000
C       -1.20050000      -0.82850000      -0.50600000
C       -0.98400000      -2.21410000       0.07450000
C       -0.02780000      -2.17050000       1.25180000
C        0.61230000      -0.80470000       1.12300000
O        1.21530000      -0.59800000      -0.16310000
N       -1.55300000      -3.23270000      -0.42850000
O       -1.22750000      -4.40260000       0.28210000
H        0.74820000       1.92490000       0.56540000
H       -0.13950000       1.86940000      -0.96610000
H       -1.02950000       1.86600000       0.56380000
H       -2.17090000      -0.42210000      -0.19160000
H       -1.18590000      -0.83410000      -1.59940000
H       -0.56910000      -2.27180000       2.20150000
H        0.69400000      -2.99080000       1.20460000
H        1.13610000      -0.35390000       1.96260000
H       -1.68020000      -5.08170000      -0.22890000
