21
Properties=species:S:1:pos:R:3 gdb_104711=T pbc="F F F"
C        0.36630000       1.55400000      -0.05320000
C       -0.02480000       0.09270000      -0.12390000
C        0.58710000      -0.78590000      -1.23620000
C        1.12060000      -1.65860000      -0.07760000
C        0.39800000      -2.99250000       0.07160000
O        0.78160000      -3.65840000       1.26860000
C        2.63950000      -1.81670000       0.11810000
O        3.15890000      -3.03500000      -0.37780000
O        0.62450000      -0.70210000       0.90650000
H        1.45080000       1.67090000      -0.14230000
H       -0.11360000       2.11650000      -0.86180000
H        0.05090000       1.98970000       0.90010000
H       -1.11610000      -0.00930000      -0.04770000
H       -0.11910000      -1.26920000      -1.91470000
H        1.36680000      -0.29280000      -1.82070000
H       -0.68880000      -2.82820000       0.03600000
H        0.67320000      -3.65340000      -0.75530000
H        0.59290000      -3.04840000       1.99220000
H        3.16900000      -1.01060000      -0.39930000
H        2.83450000      -1.69590000       1.19300000
H        2.83740000      -3.72080000       0.22040000
