16
Properties=species:S:1:pos:R:3 gdb_86873=T pbc="F F F"
C        0.11920000       1.34750000       0.38040000
N        0.08880000      -0.09170000       0.25510000
C       -1.14030000      -0.85130000       0.17910000
C       -0.57450000      -2.27140000       0.01300000
O        0.76840000      -2.10060000      -0.44330000
C        1.16200000      -0.79580000      -0.22790000
O        2.27570000      -0.40610000      -0.44290000
C       -0.55960000      -3.06850000       1.31900000
O       -1.41830000      -2.98580000       2.15560000
H        1.16040000       1.66510000       0.30960000
H       -0.45770000       1.83280000      -0.41870000
H       -0.29180000       1.66100000       1.34570000
H       -1.74090000      -0.78050000       1.09110000
H       -1.75910000      -0.54330000      -0.67580000
H       -1.12110000      -2.86010000      -0.73240000
H        0.31600000      -3.74410000       1.41920000
