23
Properties=species:S:1:pos:R:3 gdb_105266=T pbc="F F F"
C       -0.46870000       2.06990000      -3.71920000
O       -0.00510000       1.65650000      -2.45040000
C        0.39870000       0.31030000      -2.38580000
C        1.77370000       0.00250000      -2.94070000
C        1.55000000       0.07400000      -1.44210000
C        2.14200000       1.20260000      -0.62750000
C       -0.72110000      -0.67980000      -2.55690000
C       -0.91690000      -1.87240000      -1.65100000
C       -1.85720000      -0.70110000      -1.56260000
H        0.27720000       1.88280000      -4.50560000
H       -1.40560000       1.57000000      -4.00150000
H       -0.65420000       3.14510000      -3.65450000
H        1.94600000      -0.96630000      -3.39800000
H        2.31350000       0.82580000      -3.39770000
H        1.54530000      -0.88680000      -0.93650000
H        2.06370000       2.15120000      -1.16180000
H        1.61960000       1.31690000       0.32860000
H        3.19840000       1.01000000      -0.41070000
H       -1.00590000      -0.84840000      -3.59280000
H       -1.27450000      -2.79080000      -2.10360000
H       -0.22480000      -2.02550000      -0.83130000
H       -1.76590000      -0.04710000      -0.70270000
H       -2.86960000      -0.81340000      -1.93430000
