21
Properties=species:S:1:pos:R:3 gdb_113153=T pbc="F F F"
C       -0.32860000       1.38290000       0.08970000
C        0.45490000       0.09220000      -0.08060000
O        1.23440000      -0.26950000       0.77900000
C        0.22030000      -0.70940000      -1.33490000
C       -0.49360000      -0.02790000      -2.49040000
C        1.28760000      -1.74280000      -1.66790000
C       -0.03710000      -2.21710000      -1.17220000
C       -0.18580000      -2.90500000       0.16210000
O        0.04280000      -4.29300000      -0.06650000
H       -0.08500000       2.09590000      -0.70510000
H       -1.40630000       1.19590000       0.02640000
H       -0.08590000       1.82020000       1.05830000
H        0.04890000       0.85960000      -2.83470000
H       -0.57130000      -0.71090000      -3.34100000
H       -1.51040000       0.28150000      -2.22670000
H        1.53820000      -1.87440000      -2.71480000
H        2.11990000      -1.79370000      -0.97530000
H       -0.71720000      -2.61410000      -1.92220000
H        0.52660000      -2.49060000       0.88290000
H       -1.20240000      -2.73760000       0.55560000
H        0.04380000      -4.73400000       0.78800000
