18
Properties=species:S:1:pos:R:3 gdb_103913=T pbc="F F F"
O       -0.07860000       1.30060000      -0.49680000
C        0.01010000       0.04200000       0.17270000
C       -1.37810000      -0.54560000       0.11950000
O       -2.34770000       0.28840000       0.67880000
C       -1.77740000      -1.42800000      -1.05350000
C       -1.59750000      -1.99920000       0.33870000
O       -0.46170000      -2.77650000       0.63510000
C       -0.51360000      -4.07000000       0.24300000
N        0.45800000      -4.83600000       0.48700000
H        0.68050000       1.83260000      -0.24330000
H        0.73760000      -0.62440000      -0.30510000
H        0.30250000       0.17610000       1.22340000
H       -2.18710000       1.15830000       0.28940000
H       -2.79120000      -1.33990000      -1.42640000
H       -1.01750000      -1.65870000      -1.79210000
H       -2.48840000      -2.27300000       0.89860000
H       -1.44610000      -4.32970000      -0.27440000
H        0.26090000      -5.76930000       0.13150000
