16
Properties=species:S:1:pos:R:3 gdb_123847=T pbc="F F F"
C       -0.01950000       1.49020000       0.08300000
C        1.37410000       2.15350000      -0.04620000
C        2.18700000       1.41620000      -1.06090000
N        3.21180000       1.84620000      -1.78750000
N        3.58540000       0.74680000      -2.44810000
N        2.89020000      -0.36370000      -2.21380000
C        1.98340000       0.04520000      -1.32300000
C        0.92640000      -0.70720000      -0.67630000
C        0.00070000      -0.02470000       0.01290000
H       -0.49240000       1.81650000       1.01460000
H       -0.67180000       1.85630000      -0.72480000
H        1.27680000       3.21310000      -0.29720000
H        1.88990000       2.10570000       0.92310000
H        4.34450000       0.76340000      -3.10860000
H        0.90190000      -1.78730000      -0.76740000
H       -0.81540000      -0.55320000       0.49650000
