20
Properties=species:S:1:pos:R:3 gdb_81289=T pbc="F F F"
C       -0.10980000       1.50070000       0.03940000
C        0.02420000      -0.01710000      -0.00190000
C        0.84050000      -0.58990000      -1.20140000
C        2.11680000      -0.45720000      -0.32630000
C        1.16150000      -0.61380000       0.89290000
C        0.88230000      -2.09680000       1.09460000
O        0.92150000      -2.66710000       2.16670000
N        0.57610000      -2.73630000      -0.08110000
C        0.50090000      -2.07170000      -1.37780000
H        0.84930000       2.00880000      -0.10190000
H       -0.78830000       1.84990000      -0.74690000
H       -0.51870000       1.82730000       1.00130000
H       -0.96180000      -0.47250000       0.14370000
H        0.79670000      -0.06810000      -2.16060000
H        2.90450000      -1.20450000      -0.45330000
H        2.55750000       0.53940000      -0.37950000
H        1.40380000      -0.14820000       1.84760000
H        0.37810000      -3.72260000      -0.00810000
H       -0.50880000      -2.17550000      -1.80030000
H        1.20190000      -2.53860000      -2.08380000
