15
Properties=species:S:1:pos:R:3 gdb_67984=T pbc="F F F"
C        0.03190000       1.49330000      -0.10530000
C        0.03470000      -0.00060000      -0.00690000
O        0.43680000      -0.64920000      -1.22110000
C        0.36980000      -1.99140000      -0.91470000
O        0.63440000      -2.86440000      -1.68190000
C       -0.08930000      -2.00800000       0.52570000
C        0.60590000      -0.78950000       1.21550000
O       -0.59360000      -0.47800000       1.99690000
C       -1.10530000      -0.82860000       0.66970000
H        1.03100000       1.86510000      -0.34900000
H       -0.65650000       1.82650000      -0.88700000
H       -0.28300000       1.91320000       0.85240000
H       -0.23130000      -2.95350000       1.03860000
H        1.57670000      -0.74040000       1.70820000
H       -2.18310000      -0.82630000       0.50890000
