22
Properties=species:S:1:pos:R:3 gdb_113894=T pbc="F F F"
C       -0.04650000       1.50870000      -0.40890000
C       -0.06110000       0.18750000       0.36830000
C       -1.39020000      -0.52570000       0.24830000
N       -1.62980000      -1.29720000      -0.98550000
C       -1.57740000      -1.99950000       0.31010000
C       -0.45430000      -2.99150000       0.49560000
C       -0.88330000      -4.43330000       0.22300000
C        0.24080000      -5.43840000       0.05020000
O       -2.04690000      -4.75740000       0.16180000
H        0.92000000       2.01350000      -0.31800000
H       -0.23890000       1.32890000      -1.47120000
H       -0.81690000       2.19500000      -0.03960000
H        0.73820000      -0.46170000      -0.00240000
H        0.14830000       0.37540000       1.42970000
H       -2.23080000       0.05940000       0.62480000
H       -2.59170000      -1.19810000      -1.29680000
H       -2.52220000      -2.35030000       0.71670000
H        0.39800000      -2.74230000      -0.14390000
H       -0.07720000      -2.96790000       1.52970000
H        0.98400000      -5.33860000       0.84860000
H       -0.16160000      -6.45190000       0.03520000
H        0.76180000      -5.24210000      -0.89450000
