14
Properties=species:S:1:pos:R:3 gdb_29163=T pbc="F F F"
N        0.02550000       1.43320000       0.15460000
C        0.01210000       0.03390000       0.03630000
C       -1.12900000      -0.69220000      -0.00370000
O       -1.12560000      -2.06200000      -0.01760000
C        0.01970000      -2.78020000      -0.03100000
O        0.00420000      -3.99580000      -0.05650000
C        1.27030000      -2.02060000      -0.00910000
O        2.37870000      -2.77670000      -0.02270000
C        1.26730000      -0.66790000       0.03340000
H        0.74490000       1.87100000      -0.40670000
H       -0.86900000       1.86330000      -0.04110000
H       -2.13420000      -0.29580000      -0.00850000
H        2.05290000      -3.69550000      -0.04260000
H        2.20000000      -0.11570000       0.07600000
