19
Properties=species:S:1:pos:R:3 gdb_64517=T pbc="F F F"
C       -0.00990000       1.58700000       0.00030000
C        0.06440000       0.06850000      -0.02420000
C       -1.30280000      -0.55640000       0.13810000
O       -2.33490000       0.05700000       0.25070000
C        0.80790000      -0.66210000      -1.15560000
C        2.29150000      -0.77090000      -0.76260000
C        2.45910000      -0.13220000       0.61200000
C        1.05560000      -0.71320000       0.92930000
C        1.28360000      -1.76020000      -0.23470000
H        0.95550000       2.04310000      -0.22640000
H       -0.73700000       1.93880000      -0.73710000
H       -0.34840000       1.94650000       0.97720000
H       -1.29600000      -1.67000000       0.15120000
H        0.49810000      -0.74960000      -2.18970000
H        3.04210000      -0.93910000      -1.52400000
H        3.22530000      -0.65580000       1.19070000
H        2.61100000       0.94780000       0.70050000
H        0.75860000      -0.93230000       1.95320000
H        1.22120000      -2.83620000      -0.29370000
