19
Properties=species:S:1:pos:R:3 gdb_80822=T pbc="F F F"
C       -0.05920000       1.52940000       0.06150000
C       -0.05090000       0.02500000      -0.00810000
C        0.35300000      -0.81880000      -1.27470000
C       -0.37720000      -1.97260000      -0.53210000
C        0.53240000      -2.20510000       0.68620000
C        0.77570000      -0.72470000       1.04100000
O        1.46750000      -0.25690000       1.90410000
C       -1.33540000      -0.85370000      -0.01260000
O       -1.97210000      -0.97350000       1.23370000
H        0.96170000       1.92290000       0.04030000
H       -0.61770000       1.96830000      -0.77110000
H       -0.51710000       1.86310000       0.99780000
H       -0.16810000      -0.47770000      -2.17250000
H        1.41890000      -0.94080000      -1.48190000
H       -0.75260000      -2.84700000      -1.06290000
H        0.04130000      -2.72180000       1.51430000
H        1.46720000      -2.72160000       0.44990000
H       -2.02920000      -0.52180000      -0.79600000
H       -2.76950000      -1.50130000       1.12750000
