15
Properties=species:S:1:pos:R:3 gdb_123615=T pbc="F F F"
C        0.07750000       1.48450000      -0.03450000
C        1.33480000       0.68430000       0.00210000
N       -0.01140000       0.02040000      -0.01850000
C       -0.22240000      -0.62150000      -1.35220000
C        1.03920000      -0.29880000      -2.09640000
C        1.92500000       0.40520000      -1.32700000
N        3.05610000       0.65090000      -2.03040000
N        2.91150000       0.13130000      -3.22110000
N        1.67450000      -0.44410000      -3.27400000
H       -0.29410000       1.96320000       0.86770000
H       -0.14120000       2.01500000      -0.95950000
H        1.91680000       0.58970000       0.91260000
H       -0.36440000      -1.69870000      -1.20610000
H       -1.13230000      -0.22840000      -1.81890000
H        1.39660000      -0.90950000      -4.12290000
