17
Properties=species:S:1:pos:R:3 gdb_91400=T pbc="F F F"
O        0.15930000       1.32610000      -0.19280000
C        0.02000000      -0.07100000       0.01350000
C        0.74710000      -0.49590000       1.31860000
C       -0.21680000      -0.30310000       2.50680000
O       -1.20090000       0.73040000       2.16130000
C       -2.01850000      -0.27620000       1.47260000
C       -1.48290000      -0.46260000       0.03850000
C       -1.35510000      -1.32240000       2.37640000
O       -1.61860000      -2.40150000       2.80750000
H       -0.27040000       1.74170000       0.56650000
H        0.50610000      -0.54060000      -0.84570000
H        1.07510000      -1.54150000       1.28040000
H        1.63800000       0.12860000       1.42420000
H        0.25800000      -0.12880000       3.47400000
H       -3.08900000      -0.07890000       1.55280000
H       -2.00910000       0.18300000      -0.66930000
H       -1.63880000      -1.50100000      -0.27740000
