18
Properties=species:S:1:pos:R:3 gdb_94914=T pbc="F F F"
C       -0.05840000       1.54000000      -0.06960000
C       -0.00140000       0.02580000       0.05380000
O        0.63590000      -0.51390000      -1.10500000
C        1.14850000      -1.80160000      -0.79250000
C        1.50450000      -1.75370000       0.68450000
C        2.30670000      -0.54640000       1.14770000
C        3.07050000       0.26690000       0.23980000
N        3.73940000       0.91560000      -0.44630000
C        0.78530000      -0.55150000       1.22450000
H        0.94490000       1.96830000      -0.12110000
H       -0.59930000       1.81870000      -0.97790000
H       -0.58550000       1.96870000       0.78830000
H       -1.02880000      -0.37240000       0.13280000
H        0.39450000      -2.58800000      -0.95740000
H        1.99850000      -1.98690000      -1.45590000
H        1.60840000      -2.67890000       1.23800000
H        2.80080000      -0.67080000       2.10650000
H        0.33940000      -0.53630000       2.21180000
