22
Properties=species:S:1:pos:R:3 gdb_80471=T pbc="F F F"
C        1.25740000       0.98990000       0.75210000
C        0.50740000      -0.30770000       0.42350000
C        0.79670000      -0.73180000      -1.01460000
C        1.59890000      -2.00240000      -1.01380000
C        1.82810000      -2.43280000       0.42510000
C        0.94990000      -1.51870000       1.32260000
O        1.57370000      -1.16050000       2.54470000
N        0.25910000      -1.95970000      -1.57480000
C       -0.87810000      -2.67610000      -1.02800000
H        2.33460000       0.89330000       0.56510000
H        0.89620000       1.81070000       0.12520000
H        1.11610000       1.26970000       1.79850000
H       -0.56390000      -0.12420000       0.57110000
H        0.96330000       0.06450000      -1.73800000
H        2.39150000      -2.19750000      -1.73290000
H        1.62190000      -3.49380000       0.60130000
H        2.88570000      -2.27850000       0.67550000
H        0.06010000      -2.06350000       1.64750000
H        2.40810000      -0.72560000       2.34030000
H       -0.94540000      -2.72230000       0.06850000
H       -1.79600000      -2.20760000      -1.39770000
H       -0.85640000      -3.70430000      -1.40370000
