16
Properties=species:S:1:pos:R:3 gdb_48558=T pbc="F F F"
O       -0.13100000       0.00280000       0.03130000
C        0.00520000       1.20170000      -0.06390000
C        1.28020000       1.89740000       0.04670000
C        1.46510000       3.35420000       0.52770000
C        2.69900000       3.43680000       1.40400000
C        3.53800000       2.39960000       0.68920000
C        2.69200000       1.31630000       0.13230000
N        3.24840000       2.37430000      -0.78300000
C        1.87420000       2.98950000      -0.85240000
H       -0.86470000       1.87060000      -0.26020000
H        0.57880000       3.95420000       0.69160000
H        3.15230000       4.43310000       1.37710000
H        2.50450000       3.16320000       2.44550000
H        4.57640000       2.22390000       0.94400000
H        2.95500000       0.27180000       0.03210000
H        1.50310000       3.40290000      -1.78000000
