24
Properties=species:S:1:pos:R:3 gdb_6419=T pbc="F F F"
C       -0.10210000       1.53380000      -0.11370000
O       -0.05640000       0.14930000       0.13130000
C       -1.30640000      -0.52530000       0.01700000
C       -1.71590000      -0.71560000      -1.44700000
C       -1.14720000      -1.86680000       0.73690000
C       -0.80710000      -1.77370000       2.23550000
C       -1.96770000      -1.20790000       3.06610000
C       -0.38270000      -3.14700000       2.77280000
H        0.88930000       1.93430000       0.11440000
H       -0.33880000       1.77500000      -1.16060000
H       -0.84190000       2.03780000       0.52880000
H       -2.08010000       0.07760000       0.52210000
H       -0.96420000      -1.30880000      -1.97770000
H       -2.67650000      -1.23670000      -1.51070000
H       -1.82510000       0.24130000      -1.96530000
H       -2.07030000      -2.44690000       0.60350000
H       -0.35170000      -2.42140000       0.22240000
H        0.04590000      -1.09120000       2.32840000
H       -2.85450000      -1.84970000       2.98980000
H       -1.69560000      -1.14660000       4.12510000
H       -2.25590000      -0.20260000       2.74430000
H        0.47740000      -3.54240000       2.22220000
H       -0.10670000      -3.09030000       3.83120000
H       -1.19800000      -3.87590000       2.68330000
