21
Properties=species:S:1:pos:R:3 gdb_119110=T pbc="F F F"
C       -1.23170000       0.43170000       0.51520000
C        0.01620000      -0.36720000       0.17750000
O        0.85210000      -0.59510000       1.02820000
C        0.15060000      -0.93050000      -1.21550000
C       -0.67340000      -0.34820000      -2.35180000
C       -0.15370000       0.99890000      -2.85190000
O       -1.01630000       1.42890000      -3.89280000
C        1.51270000      -1.51690000      -1.54470000
C        0.39550000      -2.44460000      -1.20360000
H       -1.32100000       1.32540000      -0.11010000
H       -2.12970000      -0.17090000       0.33790000
H       -1.18980000       0.72330000       1.56500000
H       -0.66680000      -1.04160000      -3.19990000
H       -1.72340000      -0.23270000      -2.06220000
H       -0.12730000       1.73100000      -2.02840000
H        0.88160000       0.88200000      -3.20790000
H       -0.67830000       2.25820000      -4.24280000
H        1.83300000      -1.45560000      -2.57900000
H        2.28600000      -1.37100000      -0.80060000
H        0.42030000      -2.92330000      -0.23170000
H       -0.07290000      -3.02070000      -1.99410000
