17
Properties=species:S:1:pos:R:3 gdb_127510=T pbc="F F F"
C        0.01490000       1.38790000      -0.08270000
N        0.02350000      -0.04870000       0.01920000
N        0.09270000      -0.82180000      -1.11710000
C        0.08920000      -2.06190000      -0.66150000
O        0.13500000      -3.12890000      -1.49120000
C        0.04580000      -2.13690000       0.74970000
N        0.03950000      -3.23640000       1.65190000
C        0.01430000      -0.80520000       1.14050000
N       -0.10190000      -0.27760000       2.42460000
H        1.02800000       1.80890000      -0.12450000
H       -0.51450000       1.66730000      -0.99530000
H       -0.51020000       1.80390000       0.78120000
H        0.16690000      -2.78000000      -2.39090000
H        0.82840000      -3.85380000       1.48410000
H       -0.79500000      -3.80500000       1.53910000
H       -0.06850000      -1.04330000       3.09060000
H        0.61730000       0.39930000       2.65330000
