17
Properties=species:S:1:pos:R:3 gdb_69289=T pbc="F F F"
C       -0.00080000       1.50840000       0.01190000
C        0.01170000       0.00150000       0.01540000
C        0.32370000      -0.76690000       1.24580000
N        1.32460000      -0.68580000       0.14390000
C        1.17420000      -1.81140000      -0.73790000
N        0.10310000      -1.90690000      -1.43230000
C       -0.74110000      -0.75710000      -1.08490000
C        2.24590000      -2.74780000      -0.79830000
C        3.16330000      -3.52450000      -0.82280000
H        0.69350000       1.90780000       0.75550000
H        0.28900000       1.89700000      -0.97010000
H       -1.00340000       1.88540000       0.24240000
H        0.61400000      -0.24120000       2.15050000
H       -0.16090000      -1.72710000       1.40400000
H       -1.73710000      -1.10430000      -0.78730000
H       -0.87670000      -0.12610000      -1.97310000
H        3.96960000      -4.21530000      -0.85510000
