19
Properties=species:S:1:pos:R:3 gdb_10655=T pbc="F F F"
C       -0.34050000       1.45330000       0.10230000
C        0.22680000       0.02780000       0.15930000
C        0.76170000      -0.47620000      -1.16950000
C        0.68270000      -1.94590000      -1.51080000
N       -0.08210000      -0.98660000      -2.26950000
C       -1.53220000      -0.99860000      -2.13510000
C        1.97790000       0.22010000      -1.69890000
O        2.65330000       0.99640000      -1.06970000
H        0.42590000       2.16130000      -0.22110000
H       -1.18680000       1.52490000      -0.58780000
H       -0.69060000       1.76430000       1.09120000
H        1.06030000       0.00280000       0.86970000
H       -0.52800000      -0.66470000       0.54410000
H        1.49370000      -2.44630000      -2.03550000
H        0.16670000      -2.56290000      -0.77490000
H       -1.89650000      -1.24930000      -1.12810000
H       -1.93170000      -0.02060000      -2.41780000
H       -1.93120000      -1.74150000      -2.83270000
H        2.21880000      -0.05970000      -2.74830000
