14
Properties=species:S:1:pos:R:3 gdb_8591=T pbc="F F F"
O       -0.21600000      -0.00020000      -0.40280000
C       -0.02050000       1.10380000      -0.02760000
O       -1.00840000       2.04680000       0.36150000
C        0.07620000       2.88530000       0.86250000
C        0.94240000       4.17960000       0.83580000
C        1.87000000       2.93040000       1.24540000
C        0.74450000       2.48610000       2.20060000
C        1.13270000       2.15690000       0.07820000
H        1.13430000       4.62800000      -0.13950000
H        0.77800000       4.92700000       1.61550000
H        2.93830000       2.98340000       1.45160000
H        0.54750000       3.12080000       3.06590000
H        0.71490000       1.42360000       2.45080000
H        1.33230000       2.54030000      -0.92590000
