15
Properties=species:S:1:pos:R:3 gdb_24239=T pbc="F F F"
C       -0.06720000       1.53630000      -0.01030000
C        1.44290000       1.87380000      -0.02240000
O        2.17160000       1.43440000       1.11930000
C        2.25380000       0.63470000      -0.09030000
C        1.26680000      -0.47050000      -0.10280000
C        0.00080000       0.03890000      -0.03520000
N       -0.82350000      -1.04960000       0.07070000
C       -0.00350000      -2.15730000       0.02900000
N        1.27070000      -1.84010000      -0.06850000
H       -0.54880000       1.94460000       0.88590000
H       -0.56930000       1.97130000      -0.88360000
H        1.76560000       2.82030000      -0.44870000
H        3.23700000       0.57920000      -0.54480000
H       -1.82800000      -1.06090000       0.12920000
H       -0.40490000      -3.15910000       0.06380000
