20
Properties=species:S:1:pos:R:3 gdb_39172=T pbc="F F F"
C        0.70130000       1.80440000       1.14100000
C        1.50310000       1.44320000      -0.14720000
C        1.19240000       2.18920000      -1.43960000
C        1.71450000       1.45840000      -2.68690000
C        1.09810000       0.11780000      -3.03350000
C        0.69500000      -0.90500000      -2.27440000
C        0.70510000      -1.09640000      -0.77380000
C        0.74350000       0.15370000       0.03390000
N        0.06190000       0.44830000       1.08740000
H        1.28930000       1.96400000       2.05020000
H       -0.02530000       2.61660000       1.03630000
H        2.58780000       1.36410000      -0.00180000
H        0.10710000       2.32420000      -1.52720000
H        1.63670000       3.19160000      -1.40470000
H        1.57960000       2.11760000      -3.55190000
H        2.80450000       1.33100000      -2.59350000
H        1.01050000      -0.04350000      -4.10700000
H        0.32400000      -1.77950000      -2.80600000
H       -0.16860000      -1.67900000      -0.45980000
H        1.58000000      -1.71640000      -0.51450000
