19
Properties=species:S:1:pos:R:3 gdb_40389=T pbc="F F F"
C        0.48340000       1.43530000       0.02890000
O        1.04860000       0.19960000      -0.41730000
C       -0.29430000       0.18590000       0.07250000
C       -0.54260000      -0.56280000       1.32980000
C        0.54520000      -0.93540000       2.29690000
C       -0.25530000      -2.02790000       1.63400000
C       -1.69660000      -2.20160000       2.18820000
C       -2.04630000      -1.25720000       3.30570000
C       -1.98800000      -0.74040000       1.89330000
H        0.90170000       1.82920000       0.95360000
H        0.29380000       2.16900000      -0.75350000
H       -1.04480000       0.03760000      -0.70760000
H        1.53790000      -0.81770000       1.87340000
H        0.49070000      -0.72330000       3.35880000
H        0.21250000      -2.75600000       0.98370000
H       -2.30620000      -3.06510000       1.95580000
H       -3.05730000      -1.37880000       3.68420000
H       -1.33800000      -0.96120000       4.07130000
H       -2.85220000      -0.31070000       1.40240000
