19
Properties=species:S:1:pos:R:3 gdb_88119=T pbc="F F F"
C        0.00160000       1.49830000      -0.25380000
C        0.08290000       0.00200000      -0.05680000
C        1.39920000      -0.71310000      -0.04770000
C        0.60280000      -0.57640000       1.24200000
C        1.04620000       0.21690000       2.45660000
C        1.05420000      -0.86720000       3.55230000
O        0.16120000      -1.90360000       3.10840000
C       -0.05030000      -1.81760000       1.76610000
O       -0.67320000      -2.64270000       1.15720000
H        0.86220000       2.01150000       0.18710000
H       -0.01920000       1.74500000      -1.32040000
H       -0.90490000       1.91270000       0.20030000
H       -0.74170000      -0.56890000      -0.47550000
H        1.45410000      -1.70160000      -0.48960000
H        2.30600000      -0.12000000      -0.12040000
H        2.02530000       0.68860000       2.34920000
H        0.32120000       1.00110000       2.69980000
H        2.04990000      -1.30550000       3.68520000
H        0.69650000      -0.51260000       4.52100000
