13
Properties=species:S:1:pos:R:3 gdb_9108=T pbc="F F F"
C       -0.02110000       1.36550000       0.11130000
N        0.09210000      -0.07990000       0.08750000
C        0.54310000      -0.60360000      -0.95650000
O        0.65610000      -1.97870000      -0.99380000
C        1.15180000      -2.54390000      -2.13260000
O        1.50060000      -1.94020000      -3.11190000
C        1.19750000      -3.97810000      -1.99100000
C        1.26040000      -5.17600000      -1.92560000
H        0.56810000       1.75660000       0.94750000
H        0.31070000       1.85830000      -0.81520000
H       -1.06440000       1.63940000       0.30060000
H        0.87050000      -0.10830000      -1.87250000
H        1.31400000      -6.23600000      -1.86590000
