14
Properties=species:S:1:pos:R:3 gdb_76590=T pbc="F F F"
O        0.11300000       1.36120000      -0.00280000
C        0.01510000      -0.01330000       0.00030000
C       -0.43570000      -0.70720000       1.24850000
O       -0.83090000       0.12340000       2.29850000
C       -1.37410000      -0.70530000       0.03890000
C       -2.55260000       0.08640000       0.04880000
C       -3.55250000       0.76810000       0.03750000
C       -4.68070000       1.53310000       0.03030000
N       -5.64250000       2.18620000       0.02480000
H       -0.37510000       1.68490000       0.76730000
H        0.75900000      -0.47280000      -0.64110000
H       -0.01180000      -1.66780000       1.53470000
H       -0.05370000       0.31230000       2.83750000
H       -1.45050000      -1.64960000      -0.49240000
