14
Properties=species:S:1:pos:R:3 gdb_25284=T pbc="F F F"
O       -0.16250000       0.01870000       0.00090000
C       -0.02460000       1.22460000       0.00910000
C        1.23110000       1.90680000      -0.00020000
C        2.28590000       2.51020000      -0.00780000
C        3.50130000       3.19500000      -0.01600000
C        4.81350000       2.72630000      -0.03480000
C        5.66970000       3.84430000      -0.03540000
C        4.87240000       4.97580000      -0.01690000
N        3.57280000       4.57930000      -0.00540000
H       -0.90170000       1.90530000       0.02510000
H        5.09270000       1.68470000      -0.04660000
H        6.74820000       3.83450000      -0.04790000
H        5.13490000       6.02180000      -0.01130000
H        2.76990000       5.18480000       0.00880000
