16
Properties=species:S:1:pos:R:3 gdb_52372=T pbc="F F F"
O        0.02080000      -0.03030000      -0.36970000
C        0.24350000       1.10940000      -0.05830000
C        1.33310000       1.96990000      -0.67890000
N        0.99610000       3.38480000      -0.55970000
C        2.08620000       4.29430000      -0.83240000
C        2.44990000       4.43320000      -2.31720000
O        1.77800000       3.93000000      -3.19130000
C        3.62630000       5.23360000      -2.59910000
C        4.61120000       5.90220000      -2.77900000
H       -0.33290000       1.63170000       0.73890000
H        2.24150000       1.78310000      -0.08630000
H        1.53340000       1.61580000      -1.69940000
H        0.23480000       3.59730000      -1.19810000
H        1.83720000       5.30420000      -0.47370000
H        2.98020000       3.99370000      -0.27290000
H        5.47850000       6.48950000      -2.96290000
