19
Properties=species:S:1:pos:R:3 gdb_62899=T pbc="F F F"
N        1.24960000      -0.82860000      -1.40090000
C        0.97920000       0.21840000      -0.99270000
C        0.55310000       1.53790000      -0.55730000
C        0.52760000       1.82660000       0.97640000
N        2.03540000       1.68380000       0.91310000
C        1.65840000       2.59310000      -0.23970000
C        0.62280000       3.37000000       0.66240000
C       -0.56260000       4.10360000       0.02280000
C        1.18640000       4.27880000       1.75890000
H       -0.30010000       1.86380000      -1.14530000
H       -0.07180000       1.30910000       1.72740000
H        2.47930000       2.21530000       1.66090000
H        2.40300000       2.98670000      -0.93390000
H       -1.06100000       3.56170000      -0.78140000
H       -1.31860000       4.32540000       0.78390000
H       -0.22990000       5.06320000      -0.38790000
H        1.50030000       5.23530000       1.32750000
H        0.41010000       4.49690000       2.50000000
H        2.04350000       3.87210000       2.29960000
