17
Properties=species:S:1:pos:R:3 gdb_98250=T pbc="F F F"
C       -0.25220000       1.34850000       0.03080000
O       -0.21560000      -0.07530000      -0.15980000
C        0.69950000      -0.51110000      -1.05170000
O        1.44380000       0.20000000      -1.66610000
C        0.66230000      -2.04960000      -1.16100000
O        1.10010000      -2.46880000      -2.40860000
C        1.56010000      -2.64840000      -0.05230000
C        1.08100000      -2.60240000       1.37510000
O        2.60530000      -3.15460000      -0.39110000
H        0.71130000       1.71250000       0.39600000
H       -0.48490000       1.85120000      -0.91060000
H       -1.03570000       1.52950000       0.76620000
H       -0.37360000      -2.36840000      -0.98730000
H        2.01260000      -2.77310000      -2.27290000
H        0.61840000      -1.64080000       1.60780000
H        0.30720000      -3.36900000       1.50660000
H        1.90740000      -2.81630000       2.05390000
