20
Properties=species:S:1:pos:R:3 gdb_59287=T pbc="F F F"
C        0.00450000       1.54400000      -0.02860000
C       -0.01350000       0.01200000       0.03790000
C        0.77870000      -0.53060000       1.23360000
N       -1.38360000      -0.50260000       0.03240000
C       -2.37080000      -0.29310000       0.98430000
N       -3.50590000      -0.84360000       0.77570000
C       -3.35370000      -1.56000000      -0.49780000
C       -1.91970000      -1.31090000      -0.96910000
N       -1.25750000      -1.68360000      -1.99000000
H        1.03410000       1.90570000      -0.10750000
H       -0.55280000       1.90200000      -0.89840000
H       -0.43620000       1.99070000       0.86960000
H        0.41940000      -0.38710000      -0.88370000
H        0.76280000      -1.62370000       1.24690000
H        1.82100000      -0.20280000       1.17500000
H        0.37030000      -0.16940000       2.18400000
H       -2.15010000       0.31720000       1.85360000
H       -3.54540000      -2.63060000      -0.36100000
H       -4.08110000      -1.19530000      -1.23240000
H       -1.82930000      -2.26660000      -2.59840000
