22
Properties=species:S:1:pos:R:3 gdb_13884=T pbc="F F F"
C        0.03250000       1.52410000       0.02930000
C       -0.08800000      -0.00670000      -0.01710000
C       -1.56030000      -0.43600000       0.04230000
C        0.64790000      -0.55680000      -1.25000000
C        0.77330000      -2.08190000      -1.37180000
C        0.90360000      -2.26890000      -2.88950000
C       -0.02730000      -1.16990000      -3.42000000
O       -0.02110000      -0.12830000      -2.44520000
H        1.08100000       1.84100000       0.03800000
H       -0.44490000       1.97120000      -0.84800000
H       -0.44880000       1.93040000       0.92470000
H        0.43450000      -0.41730000       0.85910000
H       -2.08930000      -0.10040000      -0.85420000
H       -1.67630000      -1.52120000       0.11850000
H       -2.05220000       0.00630000       0.91430000
H        1.66320000      -0.12360000      -1.25130000
H        1.62620000      -2.47220000      -0.81080000
H       -0.12910000      -2.57980000      -1.00300000
H        1.93460000      -2.08260000      -3.20890000
H        0.61950000      -3.26580000      -3.23530000
H        0.29980000      -0.76110000      -4.38310000
H       -1.05360000      -1.54600000      -3.54540000
