19
Properties=species:S:1:pos:R:3 gdb_73254=T pbc="F F F"
C       -0.25700000       1.39610000      -0.07250000
C       -0.00220000      -0.10940000      -0.02190000
C       -1.15350000      -0.88820000       0.68080000
N       -0.31430000      -1.06420000       1.91190000
C        0.88040000      -0.54470000       1.18310000
C        1.81630000      -1.68720000       0.78800000
O        2.39150000      -1.49280000      -0.51590000
C        1.51310000      -1.11590000      -1.47610000
N        0.38760000      -0.55010000      -1.34830000
H        0.65620000       1.93320000      -0.34800000
H       -1.02260000       1.61990000      -0.82090000
H       -0.59640000       1.76780000       0.90030000
H       -2.08880000      -0.33850000       0.82490000
H       -1.38010000      -1.84970000       0.21060000
H       -0.60150000      -0.41770000       2.63850000
H        1.42490000       0.25890000       1.68820000
H        2.66060000      -1.80070000       1.47060000
H        1.24680000      -2.62340000       0.77930000
H        1.90500000      -1.35950000      -2.46280000
