23
Properties=species:S:1:pos:R:3 gdb_93818=T pbc="F F F"
C       -0.08360000       1.56220000       0.00100000
C        0.01780000       0.02940000      -0.01640000
C        0.70630000      -0.48390000      -1.28910000
C        1.02900000      -1.97530000      -1.17180000
C        1.98010000      -2.25010000       0.00010000
O        3.34730000      -1.96840000      -0.33700000
C        1.58420000      -1.50130000       1.25800000
C        2.26470000      -1.94920000       2.52360000
C        0.71310000      -0.48780000       1.22070000
H        0.91210000       2.01990000       0.00560000
H       -0.61920000       1.92890000      -0.88090000
H       -0.61710000       1.91600000       0.88950000
H       -1.01280000      -0.36350000      -0.00910000
H        0.07720000      -0.28840000      -2.16430000
H        1.63540000       0.08260000      -1.44850000
H        0.09930000      -2.53770000      -1.01340000
H        1.48940000      -2.35760000      -2.08810000
H        1.98400000      -3.32690000       0.20970000
H        3.44130000      -1.01000000      -0.36230000
H        3.35220000      -1.95400000       2.39070000
H        2.01740000      -1.30280000       3.37000000
H        1.97760000      -2.97650000       2.78370000
H        0.46420000       0.02280000       2.15130000
