17
Properties=species:S:1:pos:R:3 gdb_117437=T pbc="F F F"
C        0.06810000       1.39730000      -0.14970000
O        0.01410000      -0.00560000      -0.02460000
C        0.62460000      -0.66210000      -1.09270000
C        0.52400000      -2.16390000      -0.88340000
O        0.00730000      -2.72590000       0.04190000
O        1.11920000      -2.79140000      -1.92270000
C        1.09350000      -4.23210000      -1.84790000
C        1.75990000      -4.77310000      -3.01930000
C        2.30430000      -5.25310000      -3.97540000
H        1.10580000       1.76510000      -0.18120000
H       -0.44810000       1.74670000      -1.05770000
H       -0.43080000       1.81720000       0.72600000
H        0.15290000      -0.41690000      -2.05980000
H        1.69170000      -0.39880000      -1.19150000
H        1.58730000      -4.55350000      -0.92450000
H        0.05360000      -4.57110000      -1.78890000
H        2.78640000      -5.67610000      -4.82210000
