15
Properties=species:S:1:pos:R:3 gdb_1669=T pbc="F F F"
C        0.04550000       1.41480000       0.03090000
C        0.00470000      -0.09200000      -0.03660000
O        1.00570000      -0.77240000      -0.13020000
C       -1.34980000      -0.79110000       0.04340000
O       -1.18740000      -2.17660000      -0.14380000
C       -2.03660000      -0.55910000       1.40730000
O       -3.19220000      -1.35450000       1.50460000
H        1.04800000       1.76930000      -0.21120000
H       -0.68810000       1.85860000      -0.64940000
H       -0.21410000       1.74640000       1.04330000
H       -2.00760000      -0.39270000      -0.74420000
H       -0.22540000      -2.31880000      -0.15030000
H       -1.31480000      -0.78930000       2.20960000
H       -2.34790000       0.48510000       1.51580000
H       -2.91980000      -2.23770000       1.22210000
