13
Properties=species:S:1:pos:R:3 gdb_129261=T pbc="F F F"
N       -0.18430000       1.17980000       0.59230000
C       -0.09090000       0.05520000       0.02020000
O        0.98780000      -0.20030000      -0.84570000
N        1.16280000      -1.38980000      -1.50380000
C        0.28210000      -2.31750000      -1.30920000
C        0.54770000      -3.57420000      -2.06060000
O       -0.17560000      -4.53760000      -1.99150000
C       -0.87100000      -2.18670000      -0.44770000
C       -1.04500000      -1.02470000       0.19730000
H        0.58790000       1.79490000       0.33210000
H        1.46190000      -3.54410000      -2.68320000
H       -1.54310000      -3.03130000      -0.36080000
H       -1.87420000      -0.82470000       0.86450000
