15
Properties=species:S:1:pos:R:3 gdb_52065=T pbc="F F F"
O       -0.04320000       0.69370000       0.96030000
C        0.09840000       1.35680000      -0.04220000
N        1.28950000       1.56400000      -0.67800000
C        2.53360000       1.01430000      -0.18650000
C        3.57760000       2.09360000       0.03410000
C        5.00170000       1.84000000      -0.25880000
O        4.19730000       2.59570000      -1.16010000
C        3.24280000       3.11610000       1.01170000
N        2.96770000       3.91720000       1.79730000
H       -0.73570000       1.86820000      -0.55850000
H        1.30510000       2.12060000      -1.51840000
H        2.30070000       0.50080000       0.74990000
H        2.95120000       0.28590000      -0.89140000
H        5.76230000       2.40230000       0.27740000
H        5.29220000       0.84860000      -0.60180000
