20
Properties=species:S:1:pos:R:3 gdb_102685=T pbc="F F F"
O        0.14460000       1.47630000       0.10570000
C        0.08270000       0.08690000      -0.11840000
C       -1.34130000      -0.49350000       0.00270000
C       -2.20590000      -0.09140000      -1.19540000
O       -2.23430000       1.33300000      -1.29180000
C       -1.32820000      -2.02750000       0.12490000
C       -0.90290000      -2.51660000       1.52520000
C       -0.88580000      -3.97460000       1.62040000
N       -0.87960000      -5.12880000       1.67580000
H       -0.54200000       1.86720000      -0.45110000
H        0.48830000      -0.18970000      -1.10940000
H        0.74310000      -0.37110000       0.62670000
H       -1.79600000      -0.05940000       0.90350000
H       -1.78550000      -0.53350000      -2.11260000
H       -3.22540000      -0.48620000      -1.07200000
H       -2.64250000       1.58040000      -2.12630000
H       -2.32460000      -2.42930000      -0.08970000
H       -0.65500000      -2.45760000      -0.62630000
H        0.09290000      -2.14320000       1.78580000
H       -1.59110000      -2.12690000       2.28410000
