19
Properties=species:S:1:pos:R:3 gdb_55388=T pbc="F F F"
C       -0.96390000       0.40050000       0.56330000
C        0.37170000       0.25170000      -0.12780000
O        1.37950000       0.79760000       0.25970000
C        0.42580000      -0.61590000      -1.39000000
C        1.66770000      -1.51600000      -1.42270000
C        1.54920000      -2.50120000      -2.55410000
C        0.38900000      -2.72850000      -3.16490000
C       -0.88370000      -2.05430000      -2.73320000
O       -0.76300000      -1.38080000      -1.49140000
H       -1.71090000       0.79110000      -0.13550000
H       -1.33110000      -0.58080000       0.87950000
H       -0.85770000       1.06610000       1.42040000
H        0.48470000       0.08870000      -2.24050000
H        2.55950000      -0.89080000      -1.52820000
H        1.77640000      -2.03890000      -0.46280000
H        2.44930000      -3.02390000      -2.86580000
H        0.31340000      -3.41620000      -4.00270000
H       -1.22730000      -1.35350000      -3.51670000
H       -1.68360000      -2.79200000      -2.59820000
