15
Properties=species:S:1:pos:R:3 gdb_62418=T pbc="F F F"
O       -0.16680000       1.43870000       0.12270000
C       -0.05430000       0.03190000       0.05500000
C        0.87580000      -0.50810000       1.03680000
C        1.67570000      -0.93940000       1.82420000
C       -1.41580000      -0.68140000       0.02340000
C       -2.19870000      -0.20540000      -1.14440000
C       -1.13180000      -1.26890000      -1.38670000
C        0.20840000      -0.61340000      -1.37860000
O        1.17780000      -0.64840000      -2.07710000
H        0.72430000       1.80410000       0.07870000
H        2.37920000      -1.32050000       2.52300000
H       -1.84410000      -1.20090000       0.86880000
H       -3.21260000      -0.58330000      -1.22070000
H       -2.06050000       0.80350000      -1.51470000
H       -1.37780000      -2.23630000      -1.80450000
