18
Properties=species:S:1:pos:R:3 gdb_17181=T pbc="F F F"
O       -0.07910000       1.41280000       0.12180000
C       -0.04560000      -0.00100000      -0.03410000
C       -1.46030000      -0.49760000      -0.05060000
C       -2.57900000      -0.17130000      -1.06160000
C       -3.23920000      -1.12980000      -0.05330000
C       -1.93590000      -1.98810000       0.10810000
C       -1.98040000      -1.89510000       1.64660000
C       -2.46490000      -0.51440000       1.16240000
H        0.82470000       1.73900000       0.08350000
H        0.45420000      -0.28580000      -0.97490000
H        0.50870000      -0.48230000       0.78870000
H       -2.93910000       0.86160000      -1.07430000
H       -2.44220000      -0.54600000      -2.08220000
H       -4.26000000      -1.51430000      -0.02960000
H       -1.63710000      -2.82390000      -0.52830000
H       -2.71990000      -2.52400000       2.15280000
H       -1.02410000      -1.93190000       2.17860000
H       -2.76940000       0.35740000       1.74280000
