20
Properties=species:S:1:pos:R:3 gdb_7378=T pbc="F F F"
C       -0.03050000       1.38630000       0.00910000
O        0.03390000      -0.01940000       0.00700000
C        0.63310000      -0.53790000      -1.16210000
C        0.61700000      -2.06350000      -1.06920000
C       -0.82630000      -2.60700000      -1.02140000
C        1.36710000      -2.67910000      -2.24900000
C        1.94750000      -4.06640000      -2.04080000
O        1.49140000      -2.08810000      -3.29890000
H        0.97130000       1.84120000      -0.04620000
H       -0.62570000       1.76990000      -0.83470000
H       -0.50540000       1.69180000       0.94480000
H        0.09110000      -0.21020000      -2.06200000
H        1.66780000      -0.17160000      -1.26090000
H        1.12250000      -2.35810000      -0.14040000
H       -0.84950000      -3.68980000      -0.86930000
H       -1.36450000      -2.13030000      -0.19980000
H       -1.35160000      -2.38150000      -1.95550000
H        1.21840000      -4.74200000      -1.58260000
H        2.29190000      -4.47340000      -2.99220000
H        2.79630000      -4.00090000      -1.34920000
