19
Properties=species:S:1:pos:R:3 gdb_76581=T pbc="F F F"
O        0.13840000       1.36500000       0.00530000
C        0.03860000      -0.02560000      -0.01310000
C       -0.48770000      -0.71230000       1.22600000
O       -0.91950000       0.14150000       2.25750000
C       -1.32470000      -0.68840000      -0.02680000
C       -2.61140000       0.13080000      -0.11260000
C       -3.41140000      -0.64680000      -1.17210000
O       -2.99040000      -1.99930000      -1.05120000
C       -1.58960000      -1.96590000      -0.83110000
H       -0.25240000       1.64780000       0.84420000
H        0.84630000      -0.48210000      -0.58030000
H       -0.06640000      -1.66160000       1.55600000
H       -0.18550000       0.25910000       2.87110000
H       -3.13330000       0.13820000       0.84820000
H       -2.41870000       1.16600000      -0.40600000
H       -4.49290000      -0.61810000      -1.01940000
H       -3.19140000      -0.26290000      -2.18180000
H       -1.04470000      -1.93560000      -1.79060000
H       -1.30880000      -2.88500000      -0.30650000
