16
Properties=species:S:1:pos:R:3 gdb_124782=T pbc="F F F"
C        0.02280000       1.54160000      -0.08490000
C        0.00900000       0.00820000      -0.04960000
O        0.71830000      -0.51090000       1.06240000
C       -1.40010000      -0.51860000      -0.08150000
N       -2.05660000      -1.02270000      -1.08010000
C       -3.28300000      -1.29170000      -0.50480000
N       -4.31810000      -1.79220000      -1.24690000
N       -3.38190000      -0.98880000       0.77030000
O       -2.10150000      -0.45040000       1.05110000
H        1.05740000       1.89240000      -0.05830000
H       -0.45740000       1.91740000      -0.99330000
H       -0.51090000       1.95150000       0.77900000
H        0.51160000      -0.38610000      -0.93650000
H        0.24410000      -0.25650000       1.86260000
H       -4.02860000      -2.31890000      -2.05650000
H       -5.06230000      -2.21850000      -0.71600000
