18
Properties=species:S:1:pos:R:3 gdb_17382=T pbc="F F F"
C        0.11890000       1.37830000      -0.26260000
C        0.08140000      -0.10370000       0.09990000
O        0.53680000      -0.35510000       1.42710000
C       -1.31650000      -0.69170000      -0.06450000
O       -1.87430000      -0.53940000      -1.40320000
C       -2.20120000      -1.93440000      -1.43320000
C       -0.96480000      -2.77030000      -1.39890000
C       -1.52810000      -2.20440000      -0.10850000
H        1.13050000       1.77530000      -0.14280000
H       -0.20500000       1.52640000      -1.29630000
H       -0.55620000       1.95330000       0.38480000
H        0.77570000      -0.65310000      -0.54460000
H        0.05400000       0.23350000       2.01830000
H       -1.99440000      -0.21770000       0.66240000
H       -3.15970000      -2.22080000      -1.84930000
H       -1.11900000      -3.83890000      -1.51320000
H       -0.04570000      -2.39090000      -1.83550000
H       -1.82730000      -2.82350000       0.72500000
