24
Properties=species:S:1:pos:R:3 gdb_116772=T pbc="F F F"
C        0.39810000       0.62610000      -0.69130000
C       -0.42500000       0.25500000       0.54760000
N       -1.62930000      -0.54100000       0.38300000
C       -2.00520000      -0.90760000      -0.75890000
O       -3.14730000      -1.61390000      -0.90250000
C       -3.42990000      -2.14450000      -2.20860000
C       -2.72920000      -3.48970000      -2.38440000
C       -4.94990000      -2.24440000      -2.32950000
C       -5.66120000      -0.89360000      -2.22690000
H        1.26680000       1.21870000      -0.38880000
H        0.76920000      -0.26070000      -1.21650000
H       -0.17990000       1.22560000      -1.40290000
H        0.21830000      -0.28290000       1.25710000
H       -0.71850000       1.17470000       1.07180000
H       -1.49580000      -0.69460000      -1.70820000
H       -3.05680000      -1.43320000      -2.96190000
H       -3.07760000      -4.20030000      -1.62880000
H       -2.93540000      -3.90510000      -3.37590000
H       -1.64520000      -3.38460000      -2.27780000
H       -5.18070000      -2.72290000      -3.28870000
H       -5.31130000      -2.92060000      -1.54540000
H       -6.74510000      -1.01440000      -2.31090000
H       -5.44420000      -0.41450000      -1.26900000
H       -5.33960000      -0.21450000      -3.02500000
