15
Properties=species:S:1:pos:R:3 gdb_43607=T pbc="F F F"
O       -0.01040000       0.15240000      -0.71300000
C       -0.01720000       1.22840000      -0.19400000
C       -1.13740000       2.15900000       0.28540000
C       -0.02800000       3.15950000       0.82530000
C        1.09130000       2.18920000       0.25180000
C       -0.05540000       4.47010000       0.18850000
C       -0.07830000       5.53380000      -0.36960000
C       -0.00750000       3.26290000       2.27950000
C        0.00990000       3.31150000       3.47980000
H       -1.74520000       2.57270000      -0.52270000
H       -1.79010000       1.74140000       1.05470000
H        1.77800000       1.78980000       1.00090000
H        1.66300000       2.61890000      -0.57410000
H       -0.09830000       6.48190000      -0.84800000
H        0.02510000       3.37150000       4.54010000
