15
Properties=species:S:1:pos:R:3 gdb_99463=T pbc="F F F"
C        0.48060000       0.31370000      -1.04410000
O        0.26380000      -0.74510000      -0.12630000
C        0.45070000      -0.35990000       1.21790000
C       -0.07280000      -1.39860000       2.09740000
C       -0.46430000      -2.24340000       2.85590000
C        1.95130000      -0.13340000       1.55890000
O        2.31630000       0.81940000       2.20600000
C        2.86450000      -1.13240000       1.04360000
C        3.63790000      -1.95010000       0.61790000
H        1.51750000       0.67710000      -1.02310000
H        0.26800000      -0.08670000      -2.03690000
H       -0.19220000       1.16020000      -0.84390000
H       -0.04650000       0.59910000       1.43280000
H       -0.82470000      -2.99150000       3.51860000
H        4.32090000      -2.67470000       0.24510000
