18
Properties=species:S:1:pos:R:3 gdb_106086=T pbc="F F F"
C       -0.03940000       1.53400000      -0.30490000
C       -0.00860000       0.05290000       0.09380000
C       -1.36930000      -0.54670000       0.22230000
C       -1.97820000      -1.87310000       0.06710000
C       -2.92160000      -1.67310000       1.25590000
C       -2.67640000      -0.15140000       1.04110000
C       -3.24860000       0.05020000      -0.35270000
O       -4.04940000       0.76730000      -0.86500000
N       -2.27180000      -0.82670000      -0.99060000
H        0.97600000       1.93030000      -0.39200000
H       -0.54250000       1.66540000      -1.26690000
H       -0.57050000       2.13530000       0.44000000
H        0.54470000      -0.52710000      -0.65360000
H        0.52380000      -0.07040000       1.04560000
H       -1.54990000      -2.79160000      -0.31410000
H       -3.95390000      -2.02930000       1.18070000
H       -2.46480000      -2.03730000       2.17920000
H       -2.79650000       0.58000000       1.83540000
