14
Properties=species:S:1:pos:R:3 gdb_125283=T pbc="F F F"
C        0.09850000       1.44940000       0.02350000
C       -0.09000000      -0.02140000       0.00420000
C       -1.16750000      -0.82840000      -0.19860000
C       -0.68120000      -2.18240000      -0.08610000
C        0.64940000      -2.03720000       0.17480000
O        1.31860000      -3.16380000       0.32070000
N        0.34210000      -4.20070000       0.14050000
C       -0.80610000      -3.59640000      -0.09350000
O        1.07470000      -0.77870000       0.24330000
H        0.81490000       1.77350000      -0.73980000
H       -0.85680000       1.94160000      -0.17120000
H        0.47270000       1.79480000       0.99380000
H       -2.16880000      -0.48250000      -0.40030000
H       -1.67140000      -4.22380000      -0.25670000
