17
Properties=species:S:1:pos:R:3 gdb_56355=T pbc="F F F"
N       -0.18410000       1.33550000      -0.12980000
C        0.00290000       0.02340000       0.23150000
N        1.10320000      -0.58200000       0.46610000
C        2.33730000       0.15540000       0.32660000
C        3.53080000      -0.74970000       0.60620000
O        4.67670000      -0.39590000       0.51760000
C       -1.26780000      -0.74630000       0.42030000
C       -2.37770000      -0.21060000       1.22750000
O       -2.43910000      -0.20240000      -0.20080000
H        0.60490000       1.85380000      -0.47940000
H       -1.07360000       1.53690000      -0.56460000
H        2.48150000       0.57770000      -0.68410000
H        2.40590000       1.00970000       1.02170000
H        3.24230000      -1.78120000       0.90590000
H       -1.14310000      -1.82260000       0.34230000
H       -3.05920000      -0.90230000       1.71850000
H       -2.27120000       0.76570000       1.69520000
