14
Properties=species:S:1:pos:R:3 gdb_567=T pbc="F F F"
C        0.14810000       1.39530000       0.03150000
O       -0.27240000       0.07070000      -0.21490000
C        0.50480000      -0.58670000      -1.17410000
C        1.85400000      -1.20370000      -0.72360000
O        1.41770000      -2.51890000      -1.12450000
C        0.08260000      -2.04540000      -1.40090000
H        1.17000000       1.43490000       0.43800000
H        0.11700000       2.00640000      -0.88400000
H       -0.53800000       1.82190000       0.76650000
H        0.58230000       0.01320000      -2.09230000
H        2.75910000      -0.89170000      -1.25730000
H        2.01950000      -1.13170000       0.35990000
H       -0.64750000      -2.38870000      -0.65720000
H       -0.25450000      -2.32120000      -2.40590000
