17
Properties=species:S:1:pos:R:3 gdb_98045=T pbc="F F F"
C        0.12430000       1.51570000       0.20740000
C       -0.05490000       0.00180000       0.13350000
C       -1.48140000      -0.41970000      -0.17870000
O       -2.38590000       0.37010000      -0.34930000
C       -1.70260000      -1.85370000      -0.26190000
C       -1.86980000      -3.04710000      -0.33530000
C       -2.15000000      -4.47010000      -0.40430000
C       -3.56620000      -4.81590000       0.07690000
O       -3.82210000      -5.81130000       0.69450000
H        1.16390000       1.76700000       0.43400000
H       -0.14870000       1.98830000      -0.73940000
H       -0.51410000       1.94730000       0.98220000
H        0.59610000      -0.44650000      -0.62950000
H        0.23460000      -0.48680000       1.07390000
H       -2.08470000      -4.80470000      -1.45120000
H       -1.43290000      -5.06810000       0.16700000
H       -4.34170000      -4.07490000      -0.20970000
