14
Properties=species:S:1:pos:R:3 gdb_124219=T pbc="F F F"
C       -0.11520000       1.35450000      -0.08580000
C        0.07140000      -0.13780000       0.01180000
N        1.22600000      -0.65780000       0.06010000
N       -1.15930000      -0.82900000       0.03970000
C       -1.34150000      -2.17390000       0.12290000
N       -0.42750000      -3.10700000       0.19460000
O       -1.16580000      -4.26430000       0.25820000
N       -2.49950000      -3.95510000       0.22120000
N       -2.62400000      -2.70510000       0.13990000
H        0.86460000       1.82840000      -0.10310000
H       -0.66100000       1.62440000      -0.99710000
H       -0.68440000       1.73700000       0.76900000
H        1.20450000      -1.67510000       0.12470000
H       -2.01340000      -0.29470000      -0.00570000
