18
Properties=species:S:1:pos:R:3 gdb_47000=T pbc="F F F"
O       -0.01860000      -0.05020000      -0.04220000
C       -0.03510000       1.16470000      -0.00050000
N       -1.18980000       1.89880000       0.00130000
C       -1.26130000       3.34530000       0.17800000
C        0.12350000       3.95040000      -0.07010000
C        0.62030000       3.77800000      -1.53070000
C        1.51440000       2.51200000      -1.45760000
C        1.24030000       2.01470000      -0.02290000
O        1.05740000       3.21750000       0.72510000
H       -2.03790000       1.35420000       0.06790000
H       -1.99160000       3.77220000      -0.52060000
H       -1.58640000       3.59410000       1.19750000
H        0.13570000       4.98850000       0.26890000
H       -0.21280000       3.65870000      -2.22770000
H        1.19280000       4.65210000      -1.84690000
H        1.26890000       1.76250000      -2.21280000
H        2.57150000       2.76720000      -1.56110000
H        2.05040000       1.43880000       0.42330000
