13
Properties=species:S:1:pos:R:3 gdb_42258=T pbc="F F F"
O        0.42860000       0.36220000       0.88210000
C        0.15100000       1.28660000       0.16450000
C        1.14160000       1.82810000      -0.79350000
N        1.90170000       2.25500000      -1.55330000
C       -1.14880000       2.02300000       0.15820000
N       -2.28510000       1.35760000       0.79010000
C       -1.73490000       2.53110000       1.46910000
C       -1.08010000       2.34560000       2.73100000
C       -0.53480000       2.23990000       3.79600000
H       -1.31020000       2.66240000      -0.70630000
H       -3.14330000       1.59820000       0.30060000
H       -2.27110000       3.47310000       1.36830000
H       -0.05200000       2.12630000       4.73550000
