21
Properties=species:S:1:pos:R:3 gdb_83759=T pbc="F F F"
C       -0.15390000       1.58980000       0.00900000
C        0.06110000       0.07920000       0.01690000
C        1.15700000      -0.58880000      -0.89190000
C        2.38070000       0.31340000      -1.03160000
O        2.79460000       0.56440000       0.31970000
C        2.22730000      -0.46020000       1.11190000
C        1.53890000      -1.50360000       0.30380000
C        0.71790000      -0.59010000       1.23360000
C        0.02630000      -0.90780000       2.52840000
H        0.77100000       2.12430000       0.23890000
H       -0.52430000       1.93470000      -0.96350000
H       -0.90050000       1.87330000       0.75930000
H       -0.89130000      -0.42890000      -0.17780000
H        0.81720000      -1.04260000      -1.82240000
H        3.18790000      -0.18380000      -1.59100000
H        2.16520000       1.27510000      -1.50810000
H        2.83250000      -0.71440000       1.97490000
H        1.72290000      -2.57020000       0.31100000
H        0.66240000      -1.51330000       3.18320000
H       -0.23310000       0.00640000       3.07560000
H       -0.90120000      -1.46770000       2.35760000
