16
Properties=species:S:1:pos:R:3 gdb_44591=T pbc="F F F"
O        0.14750000       0.06170000       0.41470000
C        0.13220000       1.18600000       0.01040000
C       -1.05570000       2.20650000       0.10780000
C       -0.73380000       3.34970000      -0.87350000
C        0.54150000       3.03650000      -1.55760000
N        0.42610000       4.32430000      -0.88230000
C        1.44650000       4.31630000       0.18650000
C        1.80650000       2.85320000       0.38770000
C        1.19110000       2.11030000      -0.55320000
H       -2.00050000       1.73200000      -0.17850000
H       -1.14510000       2.50080000       1.15960000
H       -1.57440000       3.77580000      -1.41020000
H        0.72180000       2.96730000      -2.62550000
H        2.27250000       4.96550000      -0.13300000
H        1.05610000       4.73190000       1.12390000
H        2.17800000       2.46870000       1.33240000
