12
Properties=species:S:1:pos:R:3 gdb_130877=T pbc="F F F"
O       -0.02600000      -0.01910000      -0.00190000
C       -0.00870000       1.18980000       0.00730000
C        1.23140000       1.97740000      -0.00030000
C        2.50240000       1.47510000      -0.01820000
O        3.39160000       2.46440000      -0.02030000
N        2.73490000       3.68620000      -0.00370000
C        1.45200000       3.39620000       0.00840000
C        0.43400000       4.48560000       0.02810000
O        0.69690000       5.65860000       0.03570000
H       -0.94990000       1.77660000       0.02260000
H        2.88970000       0.46840000      -0.03030000
H       -0.61500000       4.12340000       0.03530000
