15
Properties=species:S:1:pos:R:3 gdb_127286=T pbc="F F F"
C        0.02220000       1.38360000       0.07630000
N       -0.01560000      -0.05920000      -0.00780000
C       -0.12670000      -0.81130000      -1.14230000
C       -0.05990000      -2.12920000      -0.71910000
N       -0.09330000      -3.45920000      -1.11400000
C        0.03660000      -4.11340000       0.01090000
N        0.15340000      -3.31570000       1.14270000
C        0.09320000      -2.02210000       0.67760000
N        0.12570000      -0.78210000       1.14460000
H        1.02600000       1.73320000       0.33780000
H       -0.26390000       1.80230000      -0.89000000
H       -0.67910000       1.72580000       0.84090000
H       -0.24080000      -0.34660000      -2.10770000
H        0.05730000      -5.19090000       0.09820000
H        0.26210000      -3.63260000       2.09000000
