17
Properties=species:S:1:pos:R:3 gdb_22742=T pbc="F F F"
O       -0.10930000       1.33290000      -0.07550000
N        0.02130000      -0.06760000      -0.05230000
C       -1.11870000      -0.64150000       0.02310000
C       -1.24190000      -2.15710000       0.06450000
C       -2.75790000      -2.39200000      -0.00020000
C       -3.36160000      -3.51470000      -0.77440000
N       -3.42310000      -3.51250000       0.69430000
C       -3.38110000      -1.04640000       0.08480000
C       -2.46320000      -0.06800000       0.08330000
H        0.80790000       1.61900000      -0.13230000
H       -0.69700000      -2.63170000      -0.75540000
H       -0.82830000      -2.54400000       1.00310000
H       -4.31840000      -3.38390000      -1.27340000
H       -2.67990000      -4.19820000      -1.27530000
H       -2.71920000      -4.14240000       1.07310000
H       -4.45600000      -0.91920000       0.13260000
H       -2.64700000       0.99580000       0.11490000
