23
Properties=species:S:1:pos:R:3 gdb_89380=T pbc="F F F"
C        0.05230000       1.57230000       0.04400000
C        0.05580000       0.04560000       0.01200000
C        0.77790000      -0.57170000      -1.21570000
C        1.21670000      -1.97370000      -0.78010000
C        0.80420000      -3.17530000      -1.59540000
C        2.51280000      -2.02720000       0.01560000
C        1.20720000      -1.98790000       0.74500000
O        0.89970000      -3.13700000       1.48070000
C        0.71180000      -0.62680000       1.24360000
H        1.07560000       1.96360000       0.08740000
H       -0.42550000       1.98930000      -0.84920000
H       -0.48640000       1.95410000       0.91800000
H       -0.98590000      -0.30220000      -0.02540000
H        0.11520000      -0.60950000      -2.08650000
H        1.63980000       0.04480000      -1.50400000
H        1.34350000      -3.22270000      -2.54860000
H        1.00610000      -4.10030000      -1.04720000
H       -0.26800000      -3.15000000      -1.82700000
H        3.03240000      -2.98000000       0.03180000
H        3.16040000      -1.15480000       0.03850000
H       -0.05910000      -3.23540000       1.49400000
H        1.53880000      -0.01860000       1.63300000
H        0.00380000      -0.75550000       2.06870000
