21
Properties=species:S:1:pos:R:3 gdb_95294=T pbc="F F F"
C        0.16010000       1.57610000       0.01340000
C        0.19010000       0.05910000       0.01490000
O        1.03700000      -0.39390000      -1.04340000
C        1.36630000      -1.74580000      -0.75910000
C        1.58950000      -1.79600000       0.75050000
C        2.80440000      -1.00500000       1.26940000
O        1.97260000       0.07530000       1.73870000
C        0.76200000      -0.59230000       1.29320000
C       -0.22830000      -0.77290000       2.42430000
H        1.14950000       1.96610000       0.25940000
H       -0.13880000       1.94520000      -0.97100000
H       -0.55770000       1.94660000       0.75190000
H       -0.82730000      -0.34380000      -0.14020000
H        0.54320000      -2.42100000      -1.04800000
H        2.24990000      -2.00780000      -1.34880000
H        1.42050000      -2.77620000       1.19700000
H        3.35940000      -1.47370000       2.09110000
H        3.51100000      -0.67410000       0.49850000
H       -0.59490000       0.19910000       2.77190000
H       -1.08940000      -1.36630000       2.09990000
H        0.24340000      -1.27560000       3.27270000
