20
Properties=species:S:1:pos:R:3 gdb_55476=T pbc="F F F"
O        0.00610000      -0.06450000      -0.19870000
C        0.09330000       1.15690000      -0.04840000
O        1.05450000       1.94200000       0.06840000
C       -1.32770000       1.90710000       0.01830000
C       -2.38910000       1.09880000       0.76130000
C       -3.71120000       1.87120000       0.88700000
C       -3.49350000       3.24170000       1.52720000
N       -2.44120000       4.01350000       0.76260000
H       -2.77530000       4.16770000      -0.19120000
H       -2.30500000       4.93280000       1.18830000
C       -1.09880000       3.25160000       0.66250000
H       -1.65100000       2.06320000      -1.02360000
H       -2.52470000       0.14790000       0.24370000
H       -2.01770000       0.84750000       1.76400000
H       -4.17180000       2.00810000      -0.10140000
H       -4.44520000       1.33690000       1.50070000
H       -4.39850000       3.85470000       1.54670000
H       -3.10830000       3.14890000       2.54660000
H       -0.73540000       3.16640000       1.68900000
H       -0.40600000       3.86920000       0.09470000
