15
Properties=species:S:1:pos:R:3 gdb_42763=T pbc="F F F"
O       -0.02760000      -0.00700000       0.04180000
C       -0.04620000       1.17700000      -0.02310000
C       -1.07790000       2.31540000       0.04250000
C       -0.03900000       2.98360000       1.00660000
C        1.00990000       2.34110000       0.03020000
N        0.74800000       2.97290000      -1.28350000
C       -0.75360000       3.02860000      -1.28890000
C        2.39540000       2.15700000       0.37490000
N        3.49970000       2.00590000       0.68070000
H       -2.11870000       2.14810000       0.30610000
H       -0.03570000       4.07530000       1.03950000
H       -0.02860000       2.55340000       2.00900000
H        1.13980000       3.90930000      -1.29080000
H       -1.15730000       2.49720000      -2.15570000
H       -1.12910000       4.05620000      -1.30290000
