21
Properties=species:S:1:pos:R:3 gdb_103706=T pbc="F F F"
C        0.04910000       1.47670000      -0.39290000
C       -0.03210000       0.10290000       0.28590000
C       -1.42880000      -0.50500000       0.23130000
C       -2.47580000       0.24980000       1.03030000
N       -1.81140000      -1.05500000      -1.07820000
C       -1.59140000      -2.00080000       0.04360000
C       -0.44280000      -2.98460000      -0.10830000
C       -2.76700000      -2.60730000       0.63560000
N       -3.69690000      -3.12080000       1.09520000
H        1.08090000       1.83950000      -0.39860000
H       -0.29250000       1.40980000      -1.43040000
H       -0.55960000       2.22780000       0.11910000
H        0.68110000      -0.56580000      -0.19980000
H        0.27380000       0.18240000       1.33660000
H       -2.61900000       1.25270000       0.61620000
H       -3.44120000      -0.26100000       1.02490000
H       -2.16240000       0.36230000       2.07340000
H       -2.80710000      -0.92960000      -1.24890000
H        0.36550000      -2.54320000      -0.69030000
H       -0.05840000      -3.29310000       0.86840000
H       -0.78690000      -3.87840000      -0.63680000
