23
Properties=species:S:1:pos:R:3 gdb_80609=T pbc="F F F"
C       -0.05740000       1.53200000      -0.00660000
C        0.03490000      -0.00100000      -0.01110000
C       -1.39460000      -0.56180000      -0.07360000
C        0.95100000      -0.54470000      -1.14650000
C        1.23310000      -2.01050000      -0.69670000
C        1.99730000      -1.29350000       0.44830000
C        2.38380000      -0.23240000      -0.61710000
C        0.85260000      -0.58770000       1.20590000
O        1.28710000       0.45200000       2.06930000
H        0.91850000       2.01770000       0.01410000
H       -0.58980000       1.87020000      -0.90290000
H       -0.61170000       1.88470000       0.86760000
H       -1.90570000      -0.21730000      -0.98000000
H       -1.42440000      -1.65430000      -0.07120000
H       -1.97970000      -0.21550000       0.78560000
H        0.65000000      -0.30440000      -2.16800000
H        0.39460000      -2.66270000      -0.44060000
H        1.90830000      -2.53320000      -1.37830000
H        2.74260000      -1.80890000       1.05920000
H        3.16270000      -0.58940000      -1.29500000
H        2.61770000       0.77550000      -0.27250000
H        0.24620000      -1.31180000       1.77040000
H        1.82320000       0.05380000       2.76200000
