14
Properties=species:S:1:pos:R:3 gdb_23657=T pbc="F F F"
N       -0.01220000       1.40850000       0.15990000
C        0.00440000       0.01890000       0.05600000
C       -1.19330000      -0.71230000       0.03740000
C       -1.16600000      -2.10040000      -0.00600000
C        0.03830000      -2.80100000      -0.03360000
C        1.21080000      -2.05960000      -0.01610000
F        2.38620000      -2.70120000      -0.04480000
C        1.22150000      -0.67500000       0.02700000
H        0.81370000       1.87540000      -0.18400000
H       -0.85690000       1.85050000      -0.17130000
H       -2.14150000      -0.18470000       0.06140000
H       -2.10170000      -2.64950000      -0.02110000
H        0.08010000      -3.88190000      -0.06900000
H        2.17020000      -0.15020000       0.04210000
