18
Properties=species:S:1:pos:R:3 gdb_30713=T pbc="F F F"
C       -0.34020000       1.50510000       0.21050000
C        0.06700000       0.09080000      -0.03550000
C        0.84600000      -0.42270000      -1.00750000
O        1.03170000      -1.77130000      -0.95970000
C        0.31980000      -2.23170000       0.14200000
C        0.28930000      -3.51640000       0.47810000
N       -1.63740000      -3.76370000       3.22050000
H       -1.31700000      -3.79360000       4.18460000
H       -1.58620000      -2.78750000       2.92760000
H       -2.62390000      -4.00690000       3.24570000
C       -0.33820000      -1.05000000       0.79210000
O       -1.04840000      -1.04710000       1.78530000
H       -0.01410000       1.83700000       1.20200000
H        0.08280000       2.18270000      -0.53590000
H       -1.43060000       1.60570000       0.18880000
H        1.35390000       0.06470000      -1.82930000
H        0.82770000      -4.25340000      -0.10680000
H       -0.28120000      -3.83520000       1.34810000
