17
Properties=species:S:1:pos:R:3 gdb_104477=T pbc="F F F"
O        0.84440000       0.48370000       0.49600000
C       -0.07540000       0.41060000      -0.57920000
C       -1.39050000      -0.22430000      -0.16020000
C       -2.36450000       0.62100000       0.56900000
O       -3.47550000       0.25430000       0.88410000
C       -2.00270000      -1.38730000      -0.93430000
O       -1.31270000      -1.78560000      -2.09010000
C       -1.33040000      -1.69220000       0.35610000
O       -0.09960000      -2.33710000       0.31260000
H        1.01180000      -0.42870000       0.76370000
H       -0.25550000       1.44350000      -0.89730000
H        0.34210000      -0.11930000      -1.44390000
H       -1.99460000       1.63400000       0.83620000
H       -3.08840000      -1.39270000      -0.98680000
H       -1.75160000      -2.56900000      -2.43900000
H       -1.91570000      -1.91980000       1.24050000
H        0.06110000      -2.54880000      -0.61980000
