20
Properties=species:S:1:pos:R:3 gdb_120796=T pbc="F F F"
C       -0.23910000       1.49770000       0.10590000
C       -0.33940000       0.02740000       0.47040000
O       -1.09420000      -0.63380000      -0.53870000
C       -1.25280000      -1.99600000      -0.31310000
C       -2.36040000      -2.46820000       0.59900000
C       -2.47490000      -2.63550000      -0.90310000
C       -3.45080000      -1.77460000      -1.69000000
C       -4.82750000      -2.26210000      -1.59910000
N       -5.91120000      -2.65620000      -1.52370000
H        0.34230000       2.03620000       0.86010000
H        0.25040000       1.62170000      -0.86400000
H       -1.23370000       1.94920000       0.04860000
H        0.66220000      -0.42600000       0.54040000
H       -0.82570000      -0.10470000       1.44860000
H       -0.32250000      -2.56570000      -0.32880000
H       -2.20820000      -3.34880000       1.21240000
H       -2.97590000      -1.69840000       1.05320000
H       -2.35390000      -3.64180000      -1.29100000
H       -3.40860000      -0.74410000      -1.32630000
H       -3.16350000      -1.74120000      -2.74750000
