22
Properties=species:S:1:pos:R:3 gdb_82294=T pbc="F F F"
C       -0.02410000       1.57610000      -0.00240000
C        0.04140000       0.04690000       0.02220000
C       -1.38020000      -0.54440000       0.04780000
C        0.82000000      -0.54480000      -1.18090000
N        1.25480000      -1.90450000      -0.77400000
C        2.55360000      -1.93430000      -0.09640000
C        1.30620000      -1.89010000       0.70920000
C        0.83850000      -0.52710000       1.22820000
O        1.90420000       0.36480000       1.54270000
H        0.97430000       2.01650000       0.00820000
H       -0.54860000       1.92010000      -0.90080000
H       -0.57020000       1.96010000       0.86600000
H       -1.94280000      -0.22130000      -0.83420000
H       -1.36240000      -1.63860000       0.04700000
H       -1.92970000      -0.21150000       0.93490000
H        0.18750000      -0.62590000      -2.07030000
H        1.67890000       0.08650000      -1.43930000
H        3.10160000      -2.86830000      -0.19240000
H        3.16480000      -1.03550000      -0.11960000
H        0.94410000      -2.78490000       1.20870000
H        0.18800000      -0.65080000       2.10550000
H        2.48020000      -0.07880000       2.17320000
