16
Properties=species:S:1:pos:R:3 gdb_29415=T pbc="F F F"
N        0.30090000       1.17960000       0.64310000
C        0.02440000      -0.11200000       0.15500000
C       -1.18050000      -0.59230000      -0.30550000
N       -1.01080000      -1.94050000      -0.59400000
C        0.27650000      -2.28870000      -0.33740000
O        0.66070000      -3.57040000      -0.60210000
C        1.43830000      -4.19450000       0.32650000
N        1.96020000      -5.30380000       0.04210000
C        0.96280000      -1.19270000       0.13080000
H        1.21870000       1.50420000       0.36400000
H       -0.38550000       1.85860000       0.33880000
H       -2.13020000      -0.10590000      -0.45090000
H       -1.70770000      -2.57050000      -0.94920000
H        1.51280000      -3.62730000       1.26080000
H        2.48560000      -5.65380000       0.84060000
H        2.00590000      -1.15510000       0.40190000
