16
Properties=species:S:1:pos:R:3 gdb_50748=T pbc="F F F"
O       -0.29240000       0.01500000       0.14760000
C       -0.08000000       1.19240000       0.15510000
N        1.15380000       1.85120000       0.01850000
C        1.10390000       3.32130000      -0.02220000
C        2.40780000       3.90500000       0.49290000
C        3.53310000       3.28210000      -0.30910000
O        3.50120000       1.85320000      -0.22370000
C        2.36000000       1.12550000      -0.11440000
O        2.42410000      -0.06700000      -0.10990000
H       -0.88380000       1.94680000       0.28180000
H        0.92490000       3.66480000      -1.05020000
H        0.25470000       3.64970000       0.58330000
H        2.41050000       4.99200000       0.37060000
H        2.53480000       3.68040000       1.55730000
H        3.46470000       3.57540000      -1.36520000
H        4.51950000       3.57140000       0.06030000
