16
Properties=species:S:1:pos:R:3 gdb_50226=T pbc="F F F"
O       -0.02430000      -0.03810000       0.13070000
C        0.01070000       1.17430000       0.08580000
N        1.14990000       1.90500000       0.02960000
C        2.51260000       1.34830000       0.01500000
C        3.28910000       2.66010000      -0.05160000
C        2.56210000       3.73020000       0.82680000
O        2.90240000       4.79460000      -0.11790000
C        2.51650000       3.66620000      -0.96590000
C        1.31560000       3.33210000      -0.02540000
H       -0.89470000       1.81370000       0.08620000
H        2.71310000       0.76270000       0.91780000
H        2.66830000       0.69950000      -0.85290000
H        4.37630000       2.64870000      -0.07880000
H        2.64720000       3.93410000       1.89390000
H        2.54700000       3.79360000      -2.04770000
H        0.40900000       3.93200000      -0.02380000
