15
Properties=species:S:1:pos:R:3 gdb_25000=T pbc="F F F"
N       -0.06740000       1.23250000       0.00740000
C       -0.02580000      -0.02170000       0.00070000
C       -1.24260000      -0.95140000       0.00250000
N       -0.59680000      -2.24140000      -0.00750000
C       -0.91520000      -3.58510000      -0.01260000
C        0.27660000      -4.27160000      -0.02240000
C        1.36360000      -3.33180000      -0.02340000
C        0.75710000      -2.10890000      -0.01400000
O        1.12860000      -0.78700000      -0.00920000
H        0.86950000       1.63680000       0.00450000
H       -1.85380000      -0.78240000       0.89490000
H       -1.86320000      -0.77340000      -0.88160000
H       -1.93720000      -3.92410000      -0.00890000
H        0.37680000      -5.34610000      -0.02840000
H        2.41950000      -3.54170000      -0.03000000
