18
Properties=species:S:1:pos:R:3 gdb_51839=T pbc="F F F"
O       -0.68480000       0.94040000       0.98750000
C       -0.04020000       1.02600000      -0.02800000
C        1.30580000       1.72800000      -0.10410000
C        1.38850000       2.77570000      -1.22570000
C        2.63600000       3.67740000      -1.18250000
C        2.86020000       4.07650000      -2.65670000
N        2.30540000       2.93630000      -3.36680000
C        1.44140000       2.16940000      -2.63880000
O        0.83310000       1.19910000      -3.04250000
H       -0.39020000       0.59170000      -0.98470000
H        1.49880000       2.18750000       0.87020000
H        2.07350000       0.96040000      -0.27580000
H        0.48700000       3.40450000      -1.19730000
H        2.52280000       4.54370000      -0.52800000
H        3.49430000       3.09680000      -0.82730000
H        2.33140000       5.00730000      -2.90720000
H        3.91860000       4.21910000      -2.89500000
H        2.39920000       2.79390000      -4.35990000
