16
Properties=species:S:1:pos:R:3 gdb_1527=T pbc="F F F"
C        0.00890000       1.50460000      -0.13240000
C        0.07730000      -0.00270000       0.02500000
O        0.60890000      -0.54060000      -1.19660000
C        0.73420000      -1.89310000      -1.22330000
O        0.43340000      -2.62840000      -0.30790000
N        1.24320000      -2.28060000      -2.42370000
C        1.49080000      -3.66770000      -2.74860000
H        1.00230000       1.92400000      -0.31610000
H       -0.64050000       1.78130000      -0.96800000
H       -0.39240000       1.95570000       0.78000000
H        0.72360000      -0.29560000       0.85860000
H       -0.91010000      -0.43760000       0.21020000
H        1.44710000      -1.55750000      -3.09240000
H        1.19760000      -4.26300000      -1.88300000
H        0.90220000      -3.99000000      -3.61550000
H        2.55100000      -3.84930000      -2.96030000
