19
Properties=species:S:1:pos:R:3 gdb_63874=T pbc="F F F"
C       -0.28130000       1.45560000      -0.10770000
C       -0.02030000      -0.04280000       0.01260000
C       -1.29110000      -0.86910000      -0.18860000
C        1.19010000      -0.60500000      -0.83670000
C        1.88990000      -1.00150000       0.46550000
O        2.05860000       0.16520000       1.24760000
C        0.76180000      -0.46370000       1.28270000
C        0.31340000      -0.92490000       2.60970000
O       -0.84110000      -1.05900000       2.93750000
H        0.63000000       2.02600000       0.08810000
H       -0.63300000       1.70410000      -1.11500000
H       -1.05020000       1.77630000       0.60340000
H       -1.69300000      -0.69670000      -1.19300000
H       -1.09590000      -1.94140000      -0.08330000
H       -2.05350000      -0.60000000       0.54590000
H        0.90490000      -1.45930000      -1.45440000
H        1.74460000       0.11800000      -1.43960000
H        2.55120000      -1.83720000       0.66900000
H        1.15730000      -1.14590000       3.29960000
