18
Properties=species:S:1:pos:R:3 gdb_85826=T pbc="F F F"
C        0.80570000       1.50510000      -0.01600000
C        0.03000000       0.19000000       0.01520000
C        0.54350000      -0.89340000      -0.98060000
C        1.27310000      -1.62210000       0.19790000
O        1.04810000      -3.00390000       0.37080000
C        2.70730000      -1.32070000       0.26680000
N        3.84670000      -1.12680000       0.29960000
C        0.40400000      -0.76450000       1.18030000
O        0.99840000      -0.15080000       2.28340000
H        1.88680000       1.34510000       0.01850000
H        0.57300000       2.05470000      -0.93380000
H        0.53830000       2.13240000       0.83840000
H       -1.04120000       0.39340000      -0.05270000
H       -0.24800000      -1.53980000      -1.36550000
H        1.17010000      -0.54700000      -1.80420000
H        1.57730000      -3.49070000      -0.27170000
H       -0.44680000      -1.40030000       1.46160000
H        1.19950000      -0.82040000       2.94580000
