16
Properties=species:S:1:pos:R:3 gdb_4352=T pbc="F F F"
C       -0.07360000       1.49930000      -0.00880000
C       -0.02650000      -0.00330000       0.02810000
N        0.01930000      -0.63370000      -1.15490000
C        0.06150000      -1.96870000      -1.14380000
C        0.11280000      -2.67400000      -2.47120000
N        0.06240000      -2.74510000      -0.04850000
C        0.01670000      -2.10810000       1.11940000
C       -0.02960000      -0.72300000       1.22040000
H        0.80450000       1.89020000      -0.53240000
H       -0.95200000       1.83430000      -0.56940000
H       -0.10840000       1.92970000       0.99460000
H        1.01280000      -3.29390000      -2.53500000
H       -0.74320000      -3.34850000      -2.57380000
H        0.10830000      -1.95100000      -3.28690000
H        0.01710000      -2.73140000       2.01180000
H       -0.06630000      -0.22730000       2.18340000
