20
Properties=species:S:1:pos:R:3 gdb_89032=T pbc="F F F"
C        0.29580000       1.32670000      -0.54430000
C       -0.02640000       0.05940000       0.20610000
O        1.02850000      -0.89350000       0.38980000
C        0.45130000      -0.28260000       1.55620000
C        1.37850000       0.56930000       2.38910000
N        2.36270000      -0.25790000       3.06450000
C        2.48410000      -0.30010000       4.42530000
C        3.54460000      -1.25650000       4.94870000
O        1.80330000       0.38190000       5.17060000
H        1.25540000       1.75080000      -0.24380000
H        0.34050000       1.12210000      -1.61900000
H       -0.48620000       2.07570000      -0.37920000
H       -0.97130000      -0.40140000      -0.09090000
H       -0.16060000      -0.96810000       2.14590000
H        1.87920000       1.31880000       1.76820000
H        0.82220000       1.08810000       3.17440000
H        2.92090000      -0.87190000       2.49410000
H        3.07630000      -1.94330000       5.65830000
H        4.04300000      -1.83450000       4.16620000
H        4.29500000      -0.68190000       5.49830000
