13
Properties=species:S:1:pos:R:3 gdb_1416=T pbc="F F F"
C        0.07600000       1.79860000       0.21500000
C       -0.16310000       0.35850000      -0.23150000
O        0.35300000       0.23160000      -1.55340000
C        0.00970000      -0.88970000      -2.23990000
N        0.42580000      -1.03960000      -3.41730000
C        0.48240000      -0.60640000       0.68300000
N        0.97510000      -1.36630000       1.40000000
H        1.14480000       2.02170000       0.20630000
H       -0.43390000       2.47420000      -0.47470000
H       -0.31220000       1.95070000       1.22460000
H       -1.24060000       0.14260000      -0.22910000
H       -0.62570000      -1.57930000      -1.66940000
H        0.08570000      -1.91820000      -3.80240000
