13
Properties=species:S:1:pos:R:3 gdb_128623=T pbc="F F F"
C       -0.05370000       1.38040000       0.07840000
O        0.02870000      -0.05020000      -0.04890000
C        0.64080000      -0.50870000      -1.11990000
N        1.14850000       0.23850000      -2.02280000
C        1.76020000      -0.39020000      -3.09130000
N        2.29560000       0.24070000      -4.04100000
O        1.76700000      -1.79580000      -3.08510000
N        1.17580000      -2.53210000      -2.03580000
N        0.64090000      -1.92950000      -1.10250000
H        0.94790000       1.81480000       0.10980000
H       -0.59900000       1.80380000      -0.76800000
H       -0.58510000       1.55350000       1.01270000
H        2.68990000      -0.40270000      -4.72650000
