21
Properties=species:S:1:pos:R:3 gdb_75348=T pbc="F F F"
C        0.23020000       1.56810000       0.04290000
C       -0.01100000       0.08120000      -0.04360000
C        0.01320000      -0.56400000      -1.21360000
C       -0.22530000      -2.04250000      -1.44430000
C       -1.47640000      -2.56650000      -0.75240000
C       -1.39670000      -3.80930000       0.11480000
C       -1.50410000      -2.45540000       0.74560000
O       -0.35230000      -1.96180000       1.36080000
C       -0.26780000      -0.54840000       1.31130000
H        1.09760000       1.79720000       0.67590000
H        0.40640000       2.00260000      -0.94390000
H       -0.62670000       2.08730000       0.49250000
H        0.23770000       0.02620000      -2.10030000
H       -0.29650000      -2.23470000      -2.52000000
H        0.64460000      -2.61180000      -1.09650000
H       -2.41010000      -2.38430000      -1.27700000
H       -2.25460000      -4.47000000       0.17200000
H       -0.43470000      -4.30540000       0.18630000
H       -2.43310000      -2.17820000       1.24670000
H        0.55460000      -0.28010000       1.98760000
H       -1.17990000      -0.09920000       1.74640000
