16
Properties=species:S:1:pos:R:3 gdb_54870=T pbc="F F F"
N        0.58150000       0.34260000      -0.83300000
C       -0.05830000       0.06030000       0.33280000
O        0.16900000       0.62050000       1.38640000
C       -1.16110000      -1.01450000       0.20780000
C       -2.34320000      -0.55870000      -0.63370000
C       -2.64640000      -1.42430000      -1.60490000
C       -1.68640000      -2.56570000      -1.59260000
O       -0.31040000      -2.16350000      -1.84670000
C       -0.74560000      -2.31580000      -0.48720000
H        1.36660000       0.97220000      -0.79500000
H        0.45150000      -0.25790000      -1.63450000
H       -1.46750000      -1.22000000       1.23810000
H       -2.83520000       0.38950000      -0.45070000
H       -3.44730000      -1.32230000      -2.32600000
H       -1.93740000      -3.55320000      -1.96520000
H       -0.24180000      -3.09890000       0.07100000
