18
Properties=species:S:1:pos:R:3 gdb_114572=T pbc="F F F"
C        0.13800000       1.52030000       0.10550000
C       -0.18470000       0.03360000      -0.08190000
C        0.59180000      -0.57610000      -1.23070000
O        2.04420000      -0.53570000      -1.06350000
C        2.15170000      -1.91840000      -1.35680000
C        1.46990000      -2.75390000      -0.33410000
C        0.63390000      -2.10300000      -1.43370000
C       -0.17800000      -2.83570000      -2.34100000
N       -0.85130000      -3.41820000      -3.08160000
H        1.20410000       1.66030000       0.30440000
H       -0.11620000       2.09720000      -0.79010000
H       -0.42480000       1.93850000       0.94450000
H        0.03060000      -0.51610000       0.84060000
H       -1.25300000      -0.10280000      -0.29270000
H        0.34010000      -0.08200000      -2.17710000
H        2.93670000      -2.24720000      -2.02720000
H        1.57950000      -3.82660000      -0.45360000
H        1.39000000      -2.40110000       0.68890000
