16
Properties=species:S:1:pos:R:3 gdb_74175=T pbc="F F F"
N        0.27650000       1.27650000       0.04980000
C        0.05820000      -0.05930000       0.00170000
C       -1.11090000      -0.74830000      -0.02540000
C       -0.87510000      -2.18360000      -0.02760000
O       -1.68880000      -3.08270000      -0.04500000
C        0.65720000      -2.40070000      -0.00730000
C        1.26680000      -0.99400000       0.03030000
C        2.23930000      -0.66420000      -1.09810000
O        2.71190000       0.43350000      -1.26730000
H        1.19150000       1.59610000      -0.23880000
H       -0.49420000       1.89700000      -0.14090000
H       -2.10240000      -0.31510000      -0.03850000
H        0.93110000      -3.00680000       0.85950000
H        0.95540000      -2.96560000      -0.89740000
H        1.82740000      -0.80420000       0.95630000
H        2.50040000      -1.50700000      -1.77350000
