20
Properties=species:S:1:pos:R:3 gdb_113236=T pbc="F F F"
C        0.00590000       1.75140000       0.11620000
C       -0.14170000       0.24760000       0.22380000
C       -1.44100000      -0.29700000      -0.38100000
C       -1.52710000      -0.11280000      -1.82730000
C       -1.58000000       0.03800000      -3.01860000
N        1.08650000      -0.53700000       0.00930000
C        0.44180000      -0.54910000       1.34160000
C        1.29950000      -0.00230000       2.46100000
O        2.41630000      -0.84490000       2.69060000
H        0.99710000       2.07590000       0.43390000
H       -0.13230000       2.06350000      -0.92380000
H       -0.74570000       2.26440000       0.72670000
H       -1.53360000      -1.36470000      -0.14540000
H       -2.29560000       0.19660000       0.10100000
H       -1.63290000       0.16960000      -4.07090000
H        0.88310000      -1.39240000      -0.50200000
H       -0.09590000      -1.45750000       1.61220000
H        1.61700000       1.02530000       2.23810000
H        0.73100000       0.02130000       3.39690000
H        2.86010000      -0.92530000       1.83740000
