13
Properties=species:S:1:pos:R:3 gdb_5339=T pbc="F F F"
C        0.00450000      -1.20820000      -0.00370000
C        0.00710000      -0.00400000       0.00270000
C        0.00220000       1.41840000       0.01050000
C       -1.20800000       2.13440000       0.03030000
N       -1.28700000       3.46210000       0.03850000
C       -0.14050000       4.14920000       0.02710000
C        1.11540000       3.54720000       0.00740000
C        1.19030000       2.16200000      -0.00110000
H        0.00220000      -2.27010000      -0.00910000
H       -2.14770000       1.58840000       0.03970000
H       -0.23130000       5.23260000       0.03420000
H        2.01380000       4.15390000      -0.00120000
H        2.14590000       1.65010000      -0.01650000
