20
Properties=species:S:1:pos:R:3 gdb_109894=T pbc="F F F"
C       -0.22250000       1.60080000       0.17590000
N       -0.14680000       0.15230000       0.10770000
C       -1.30920000      -0.60430000       0.66920000
C       -2.15690000      -1.27280000      -0.40820000
O       -2.46900000      -0.34930000      -1.44050000
C       -0.33470000      -1.46310000       1.51240000
O        0.26080000      -2.57040000       0.80650000
C        1.42390000      -1.77940000       0.44230000
C        0.79220000      -0.51500000       1.04350000
H        0.69810000       2.04350000      -0.21930000
H       -1.06010000       1.94360000      -0.43810000
H       -0.37600000       1.98430000       1.20170000
H       -1.92760000       0.03500000       1.31730000
H       -1.61600000      -2.14490000      -0.79800000
H       -3.10870000      -1.61930000       0.00710000
H       -1.61560000      -0.07330000      -1.79680000
H       -0.60540000      -1.71600000       2.53910000
H        2.32060000      -2.14330000       0.95990000
H        1.59380000      -1.75310000      -0.63880000
H        1.38710000       0.14190000       1.68060000
