17
Properties=species:S:1:pos:R:3 gdb_35795=T pbc="F F F"
N        0.04460000      -1.15000000       0.04130000
C        0.05010000       0.00460000       0.01850000
C       -0.00190000       1.47000000       0.01380000
C       -0.82840000       1.99740000       1.20770000
N       -0.63800000       3.43280000       1.45020000
C        0.55830000       3.82590000       2.20160000
C        0.45590000       4.13040000       0.75400000
C        1.31450000       3.36530000      -0.23330000
O        1.32240000       1.97340000       0.05070000
H       -0.48400000       1.78440000      -0.92710000
H       -1.88930000       1.81230000       1.00680000
H       -0.56110000       1.43520000       2.10760000
H        0.40620000       4.60480000       2.94380000
H        1.25290000       3.03950000       2.48950000
H        0.20480000       5.14160000       0.43800000
H        0.94850000       3.53180000      -1.25980000
H        2.35640000       3.69500000      -0.18800000
