21
Properties=species:S:1:pos:R:3 gdb_63040=T pbc="F F F"
C       -0.01430000       1.51270000       0.04760000
C        0.04150000      -0.01970000      -0.00390000
C       -1.38170000      -0.57490000      -0.13430000
C        1.01370000      -0.64090000      -1.05150000
C        2.37050000       0.04570000      -0.75880000
C        2.29560000      -0.72280000       0.57100000
C        1.53940000      -1.86210000      -0.13630000
O        0.65210000      -2.07240000       0.96330000
C        0.83180000      -0.64050000       1.18260000
H        0.92410000       1.96900000       0.37090000
H       -0.27400000       1.93410000      -0.92970000
H       -0.78710000       1.82990000       0.75630000
H       -1.86150000      -0.17070000      -1.03300000
H       -1.38340000      -1.66330000      -0.19660000
H       -1.99590000      -0.28480000       0.72600000
H        0.64310000      -0.78000000      -2.06680000
H        3.17640000      -0.36700000      -1.37440000
H        2.43090000       1.13430000      -0.77950000
H        3.12730000      -0.88180000       1.25530000
H        1.96250000      -2.75680000      -0.59110000
H        0.61580000      -0.32250000       2.20300000
