18
Properties=species:S:1:pos:R:3 gdb_17541=T pbc="F F F"
C        0.00160000       1.49360000       0.00650000
C        1.32250000       0.76310000      -0.00450000
C        2.00930000       0.55840000       1.33860000
C        0.90150000       0.01670000       2.24020000
C        1.05740000      -0.22530000       3.67490000
O        0.36120000       0.93370000       3.20840000
C       -0.11080000      -0.70820000       1.35520000
C        0.01880000      -0.01570000       0.00570000
H       -0.30040000       2.01100000       0.91150000
H       -0.29960000       1.98570000      -0.91180000
H        1.93500000       0.81280000      -0.89760000
H        2.81360000      -0.18150000       1.23890000
H        2.43990000       1.46860000       1.76700000
H        0.43950000      -0.97560000       4.16830000
H        2.01640000      -0.03340000       4.15600000
H        0.15850000      -1.76780000       1.25970000
H       -1.11140000      -0.65310000       1.79480000
H       -0.32540000      -0.53770000      -0.87990000
