17
Properties=species:S:1:pos:R:3 gdb_127936=T pbc="F F F"
C        0.02030000       1.41790000       0.03070000
N        0.05710000      -0.02930000       0.04210000
C       -1.05130000      -0.65910000       0.02440000
N       -2.31790000      -0.03470000      -0.00580000
N       -3.50300000      -0.65000000      -0.02550000
C       -3.46760000      -1.94510000      -0.01550000
C       -2.20990000      -2.66660000       0.01520000
C       -2.23210000      -4.16870000       0.02560000
N       -1.07150000      -2.05210000       0.03400000
H        1.04190000       1.80530000       0.04810000
H       -0.46620000       1.82970000      -0.87110000
H       -0.50140000       1.84280000       0.90630000
H       -2.37690000       0.97080000      -0.01420000
H       -4.42230000      -2.45820000      -0.03120000
H       -2.74630000      -4.55250000      -0.86330000
H       -1.21330000      -4.55490000       0.05000000
H       -2.78380000      -4.53990000       0.89720000
