17
Properties=species:S:1:pos:R:3 gdb_70220=T pbc="F F F"
O       -0.02960000       1.37600000      -0.04750000
C        0.01620000      -0.02060000      -0.00390000
C       -0.43220000      -0.80320000      -1.21780000
C       -1.29850000      -0.71890000       0.03730000
N       -1.42820000      -1.82580000       0.94000000
C       -0.35060000      -2.57840000       1.37120000
O       -0.47680000      -3.67820000       1.87800000
N        0.88410000      -1.99490000       1.15410000
C        1.08460000      -0.57430000       0.92410000
H        0.67330000       1.67860000      -0.63390000
H       -0.75540000      -0.22630000      -2.07720000
H        0.05750000      -1.74580000      -1.43560000
H       -2.18240000      -0.09360000      -0.01140000
H       -2.27160000      -2.37680000       0.88200000
H        1.62790000      -2.50520000       1.60420000
H        2.08380000      -0.42970000       0.49360000
H        1.03840000       0.01550000       1.85230000
