18
Properties=species:S:1:pos:R:3 gdb_30364=T pbc="F F F"
C       -0.12500000       1.49760000      -0.02390000
N        0.15940000       0.07650000       0.01190000
C        0.79120000      -0.53740000      -1.16540000
C        1.36130000      -1.88160000      -0.63320000
N        1.55080000      -1.54220000       0.76380000
C        2.05600000      -2.07230000       1.94400000
C        1.63530000      -1.20210000       2.91470000
N        0.85660000      -0.17320000       2.39030000
C        0.82950000      -0.44560000       1.11190000
H        0.76830000       2.10270000      -0.25290000
H       -0.88850000       1.70450000      -0.77960000
H       -0.50540000       1.79980000       0.95360000
H        0.07020000      -0.68090000      -1.97440000
H        1.61180000       0.09560000      -1.54220000
H        0.64040000      -2.70130000      -0.74720000
H        2.29260000      -2.16320000      -1.13050000
H        2.66990000      -2.95610000       1.96990000
H        1.85340000      -1.24410000       3.97120000
