15
Properties=species:S:1:pos:R:3 gdb_67515=T pbc="F F F"
O       -0.10020000       1.40900000       0.04760000
C       -0.04350000       0.03720000       0.01620000
C        0.66680000      -0.75310000      -1.13870000
O        0.82410000      -2.11710000      -0.72640000
C       -0.45860000      -1.67810000      -1.21380000
C       -1.21120000      -0.93670000      -0.06750000
C       -0.36400000      -0.86100000       1.18640000
C        0.52670000      -1.94250000       1.74570000
O        1.49710000      -1.69120000       2.41550000
H        0.65440000       1.73290000       0.55430000
H        1.34370000      -0.35510000      -1.88490000
H       -0.89280000      -2.22420000      -2.04140000
H       -2.27190000      -0.72610000      -0.07820000
H       -0.85460000      -0.28510000       1.96980000
H        0.19150000      -2.98320000       1.56450000
