16
Properties=species:S:1:pos:R:3 gdb_67929=T pbc="F F F"
C        0.25510000       1.40140000      -0.05710000
C       -0.01070000      -0.07040000      -0.00030000
C       -1.38700000      -0.76200000       0.08070000
C       -0.72310000      -1.80440000       1.03010000
O       -1.15480000      -2.66380000       1.73610000
C        0.63710000      -1.14050000       0.88550000
N        0.88570000      -1.06910000      -0.55900000
C        2.15410000      -0.82890000      -1.06690000
O        3.18190000      -1.26360000      -0.60920000
H        1.31280000       1.62040000       0.11600000
H       -0.02220000       1.81380000      -1.03370000
H       -0.33470000       1.92290000       0.70260000
H       -2.13840000      -0.18430000       0.62750000
H       -1.80510000      -1.12700000      -0.85890000
H        1.47550000      -1.08760000       1.56900000
H        2.10230000      -0.25070000      -2.00860000
