14
Properties=species:S:1:pos:R:3 gdb_127683=T pbc="F F F"
C       -0.02260000       1.42240000      -0.03340000
N       -0.02610000      -0.03340000       0.00510000
N       -0.07650000      -0.63990000      -1.22790000
C       -0.08200000      -1.90850000      -1.25700000
O       -0.04320000      -2.74760000      -0.19360000
C        0.00880000      -2.21570000       1.08830000
N        0.04610000      -2.95150000       2.10640000
C        0.01870000      -0.70600000       1.20830000
O        0.06260000      -0.15160000       2.28270000
H        0.84740000       1.77610000      -0.59310000
H       -0.93100000       1.78230000      -0.52370000
H        0.01870000       1.78090000       0.99300000
H       -0.12070000      -2.43500000      -2.20090000
H        0.03240000      -3.93850000       1.84240000
