15
Properties=species:S:1:pos:R:3 gdb_124310=T pbc="F F F"
C       -0.13970000       1.49260000      -0.04420000
C        0.02800000      -0.00740000       0.09580000
O        0.04220000      -0.56750000       1.16290000
C        0.19210000      -0.77650000      -1.22600000
C        0.11090000      -2.25220000      -1.04700000
N        1.16370000      -3.02390000      -1.10150000
O        0.64380000      -4.30250000      -0.86730000
C       -0.66950000      -4.14070000      -0.70370000
N       -1.07490000      -2.91680000      -0.80320000
H        0.64410000       1.91660000      -0.68130000
H       -1.09840000       1.71340000      -0.52810000
H       -0.11540000       1.96050000       0.94030000
H       -0.57350000      -0.44140000      -1.93430000
H        1.16450000      -0.50980000      -1.65500000
H       -1.25440000      -5.02810000      -0.51150000
