15
Properties=species:S:1:pos:R:3 gdb_19032=T pbc="F F F"
O        0.01390000       0.00350000      -0.10050000
C       -0.02400000       1.20130000       0.01650000
C       -1.26990000       2.09370000       0.07230000
C       -0.69570000       3.42750000       0.52600000
C       -0.05690000       3.34290000       1.93760000
C        1.25350000       3.10910000       1.20590000
C        1.14650000       2.13550000       0.06910000
N        0.70630000       3.54330000      -0.11610000
H       -1.68500000       2.16490000      -0.94070000
H       -2.03880000       1.67790000       0.72840000
H       -1.31230000       4.29840000       0.31310000
H       -0.05270000       4.31210000       2.44050000
H       -0.42340000       2.57930000       2.63030000
H        2.23830000       3.41640000       1.54520000
H        2.06610000       1.84730000      -0.42720000
