18
Properties=species:S:1:pos:R:3 gdb_30882=T pbc="F F F"
C        0.28820000       1.01550000      -0.33220000
O       -0.22570000       0.18370000       0.71360000
C       -1.31310000      -0.55600000       0.36510000
C       -1.38670000      -1.86580000      -0.03910000
O       -0.34650000      -2.73070000      -0.23140000
C       -2.76100000      -2.17680000      -0.23610000
C       -3.49310000      -1.04510000       0.05630000
C       -4.96750000      -0.81340000       0.03900000
N       -2.60490000      -0.05560000       0.41030000
H        1.17320000       1.51440000       0.06920000
H        0.56400000       0.41920000      -1.20990000
H       -0.44720000       1.77080000      -0.63590000
H        0.44400000      -2.31310000       0.12870000
H       -3.15910000      -3.12540000      -0.56080000
H       -5.36020000      -0.54890000       1.02960000
H       -5.25440000      -0.00860000      -0.64990000
H       -5.48010000      -1.72230000      -0.28420000
H       -2.84910000       0.84110000       0.79320000
