14
Properties=species:S:1:pos:R:3 gdb_21045=T pbc="F F F"
C        0.00370000       1.42130000      -0.07950000
N        0.04550000      -0.01770000      -0.00660000
N        0.08110000      -0.79700000      -1.15130000
C        0.12080000      -2.01800000      -0.64500000
N        0.23310000      -3.15080000      -1.42660000
N        0.10280000      -2.09840000       0.72270000
C        0.05680000      -0.82570000       1.05990000
O        0.02150000      -0.33400000       2.30560000
H        0.89180000       1.80210000      -0.59240000
H       -0.88590000       1.74860000      -0.62560000
H       -0.02720000       1.81840000       0.93590000
H       -0.08080000      -3.01440000      -2.37660000
H       -0.16780000      -3.97040000      -0.99490000
H        0.05110000      -1.09360000       2.90060000
