19
Properties=species:S:1:pos:R:3 gdb_105757=T pbc="F F F"
C       -0.23150000       1.33550000       0.03520000
N       -0.07050000      -0.10550000      -0.17560000
C        0.84540000      -0.48560000      -1.25350000
C        0.93110000      -2.03770000      -1.36590000
C        0.09330000      -2.33870000      -2.61580000
O        0.32860000      -1.23180000      -3.47050000
C        0.25250000      -0.08510000      -2.65270000
C        2.19170000       0.10020000      -1.06150000
N        3.22360000       0.58270000      -0.85870000
H        0.71340000       1.86740000       0.22440000
H       -0.70870000       1.78970000      -0.83850000
H       -0.89580000       1.48890000       0.88930000
H        0.25690000      -0.52750000       0.68770000
H        1.96560000      -2.35160000      -1.51660000
H        0.54610000      -2.51610000      -0.46270000
H        0.39760000      -3.24590000      -3.14180000
H       -0.97480000      -2.41540000      -2.35920000
H       -0.79300000       0.21360000      -2.48750000
H        0.79300000       0.72480000      -3.14540000
