16
Properties=species:S:1:pos:R:3 gdb_21284=T pbc="F F F"
C       -0.09090000       1.41390000       0.01260000
O       -0.00630000      -0.00490000       0.08300000
C       -1.17970000      -0.66020000       0.03770000
N       -2.34900000      -0.04540000      -0.06550000
N       -3.24380000      -1.07140000      -0.07590000
C       -2.66580000      -2.29530000       0.01730000
C       -3.45790000      -3.56170000       0.02450000
C       -1.30660000      -2.06900000       0.09420000
H        0.93600000       1.77940000       0.06200000
H       -0.56130000       1.73470000      -0.92310000
H       -0.67520000       1.81570000       0.84740000
H       -4.22250000      -0.85610000      -0.14860000
H       -4.04300000      -3.68060000      -0.89470000
H       -2.78960000      -4.42090000       0.10730000
H       -4.15700000      -3.59940000       0.86790000
H       -0.52060000      -2.80040000       0.17820000
