17
Properties=species:S:1:pos:R:3 gdb_20301=T pbc="F F F"
C        0.62410000       1.36330000       0.32580000
C        0.64220000       0.17630000      -0.56230000
N       -0.54480000       0.48180000       0.24830000
C       -0.80550000      -0.32230000       1.41720000
C       -1.80950000      -1.44780000       1.44050000
C       -1.61920000      -2.32600000       0.20810000
O       -0.20080000      -2.49050000       0.48620000
C       -0.33050000      -1.72750000       1.68740000
H        1.23520000       1.31750000       1.22570000
H        0.48040000       2.36170000      -0.07770000
H        0.50370000       0.29170000      -1.63360000
H        1.25270000      -0.66940000      -0.26790000
H       -0.86380000       0.27490000       2.32570000
H       -2.66340000      -1.47070000       2.10440000
H       -2.12880000      -3.29310000       0.27080000
H       -1.80390000      -1.86330000      -0.76710000
H        0.22920000      -2.06490000       2.55390000
