19
Properties=species:S:1:pos:R:3 gdb_70924=T pbc="F F F"
O        0.06420000       1.39020000       0.02170000
C        0.05290000       0.00820000      -0.00230000
C        0.63020000      -0.95460000      -1.13790000
C       -0.05760000      -1.85400000      -0.07920000
C        0.63470000      -0.98160000       1.02610000
C       -0.62720000      -3.22100000       0.24980000
C       -1.83320000      -2.77920000       1.09300000
C       -2.12640000      -1.47370000       0.98210000
C       -1.24280000      -0.84940000      -0.06880000
H        0.97570000       1.68680000       0.11900000
H        0.15390000      -0.89090000      -2.11950000
H        1.72020000      -1.00550000      -1.21590000
H        1.72550000      -1.05730000       1.07290000
H        0.18200000      -0.99190000       2.01790000
H       -0.95360000      -3.78290000      -0.63630000
H        0.06170000      -3.86600000       0.80630000
H       -2.38250000      -3.48430000       1.70940000
H       -2.96010000      -0.98690000       1.47570000
H       -1.77880000      -0.73040000      -1.01980000
