16
Properties=species:S:1:pos:R:3 gdb_23593=T pbc="F F F"
O       -0.13240000       1.34220000       0.02460000
N        0.01280000      -0.05250000       0.04810000
C       -1.11530000      -0.64720000       0.03950000
C       -1.20820000      -2.13720000      -0.01620000
C       -2.05250000      -2.87000000       1.00980000
C       -2.66490000      -2.47680000      -0.30720000
C       -3.42100000      -1.15900000      -0.32080000
O       -3.41240000      -0.45960000       0.92610000
C       -2.48120000      -0.04290000      -0.09640000
H        0.78270000       1.64160000       0.00720000
H       -0.38430000      -2.67060000      -0.47340000
H       -1.81290000      -3.91770000       1.15350000
H       -2.37940000      -2.33910000       1.89400000
H       -2.94000000      -3.23070000      -1.03410000
H       -4.32770000      -1.05520000      -0.90950000
H       -2.60170000       0.97080000      -0.45870000
