18
Properties=species:S:1:pos:R:3 gdb_37158=T pbc="F F F"
C        0.07780000       1.45410000       0.13420000
C        1.30470000       0.63280000      -0.04230000
N       -0.04720000      -0.01010000      -0.00520000
C       -0.20490000      -0.50920000      -1.42250000
C        0.45670000       0.48400000      -2.39830000
C        1.39520000      -0.51200000      -3.14260000
C        2.67870000       0.23950000      -2.65620000
C        1.69840000       0.30100000      -1.46210000
C        1.15790000      -1.15410000      -1.74940000
H       -0.17760000       1.82960000       1.12190000
H       -0.23930000       2.09590000      -0.68250000
H        1.96990000       0.41860000       0.78870000
H       -1.17410000      -0.98450000      -1.57560000
H        0.10140000       1.43730000      -2.79010000
H        1.22280000      -0.96380000      -4.11890000
H        3.58320000      -0.36240000      -2.52450000
H        2.91330000       1.18600000      -3.15330000
H        1.59730000      -2.06850000      -1.34940000
