25
Properties=species:S:1:pos:R:3 gdb_101809=T pbc="F F F"
C        0.01350000       1.58250000      -0.12710000
C        0.04320000       0.05000000      -0.03560000
C        0.76060000      -0.54540000      -1.25510000
C        0.69450000      -0.45130000       1.26610000
C       -0.07450000      -0.11500000       2.54970000
C        0.59180000      -0.65860000       3.81320000
O        1.91140000      -0.12690000       4.00520000
C       -0.22500000      -0.40950000       5.08380000
O        0.46310000      -0.86950000       6.22600000
H        1.03030000       1.99310000      -0.09380000
H       -0.44330000       1.90930000      -1.06700000
H       -0.55710000       2.03620000       0.68880000
H       -0.99650000      -0.30960000      -0.05010000
H        1.80860000      -0.22380000      -1.28850000
H        0.75070000      -1.64020000      -1.22990000
H        0.28680000      -0.22640000      -2.18940000
H        0.80340000      -1.54240000       1.20660000
H        1.71400000      -0.05250000       1.34250000
H       -0.19060000       0.97290000       2.65820000
H       -1.09260000      -0.52310000       2.48970000
H        0.75310000      -1.73930000       3.71560000
H        1.84410000       0.83510000       3.96620000
H       -0.45350000       0.67080000       5.15750000
H       -1.18170000      -0.94160000       5.03460000
H        1.38810000      -0.63490000       6.07270000
