21
Properties=species:S:1:pos:R:3 gdb_64347=T pbc="F F F"
C       -0.02720000       1.55870000       0.02860000
C        0.00470000       0.02800000      -0.00360000
O       -1.33110000      -0.48890000      -0.03570000
C        0.66730000      -0.49490000      -1.28860000
C        0.69530000      -2.02770000      -1.33710000
C        1.39030000      -2.62640000      -0.09840000
C        0.82000000      -2.05950000       1.19230000
O        0.46590000      -2.74930000       2.11920000
C        0.74020000      -0.53770000       1.23290000
H        0.98130000       1.98270000      -0.01210000
H       -0.60050000       1.93860000      -0.82190000
H       -0.50320000       1.91740000       0.94860000
H       -1.75620000      -0.28070000       0.80330000
H        0.11640000      -0.10250000      -2.14980000
H        1.68630000      -0.09200000      -1.34620000
H       -0.33290000      -2.39750000      -1.38590000
H        1.20500000      -2.36630000      -2.24480000
H        1.31190000      -3.71550000      -0.06760000
H        2.45930000      -2.36760000      -0.12460000
H        1.76180000      -0.13540000       1.26070000
H        0.24080000      -0.23650000       2.15990000
