16
Properties=species:S:1:pos:R:3 gdb_128415=T pbc="F F F"
C       -0.24090000       1.46590000       0.19740000
N       -0.23880000       0.01170000       0.18250000
C        0.93460000      -0.56750000       0.79550000
C        0.79850000      -2.05150000       0.98910000
N       -0.41540000      -2.59480000       1.03530000
C       -0.39750000      -3.90920000       1.22730000
N        0.69450000      -4.66010000       1.37450000
N        1.86920000      -4.04480000       1.33740000
N        1.94070000      -2.74680000       1.14280000
H        0.58500000       1.84300000      -0.41670000
H       -1.17350000       1.83220000      -0.24000000
H       -0.13320000       1.90820000       1.20450000
H       -1.07100000      -0.36280000       0.62320000
H        1.82180000      -0.38590000       0.17680000
H        1.18120000      -0.14210000       1.79230000
H       -1.34950000      -4.43210000       1.27190000
