18
Properties=species:S:1:pos:R:3 gdb_67719=T pbc="F F F"
C       -0.01760000       1.46470000      -0.06360000
C       -0.09200000      -0.03020000       0.07130000
C       -1.13740000      -0.86820000      -0.51480000
C       -0.90620000      -2.16160000      -0.16140000
C       -0.05480000      -2.90890000      -1.19970000
C        1.09550000      -2.25370000      -0.33160000
C        0.19500000      -2.21120000       0.92030000
C        0.63140000      -0.77020000       1.12780000
N        1.31200000      -0.73940000      -0.21820000
H        0.95720000       1.83660000       0.25990000
H       -0.16850000       1.77240000      -1.10300000
H       -0.79320000       1.93920000       0.54730000
H       -1.57440000      -0.59690000      -1.47220000
H        0.01810000      -3.99870000      -1.10440000
H       -0.18030000      -2.62380000      -2.24520000
H        2.07440000      -2.73760000      -0.32910000
H        0.18520000      -2.98060000       1.68780000
H        1.06890000      -0.31360000       2.00850000
