21
Properties=species:S:1:pos:R:3 gdb_57705=T pbc="F F F"
C        0.07170000       1.57510000       0.10250000
C        0.05510000       0.03100000       0.02710000
C        0.90650000      -0.55930000       1.17450000
C       -1.40370000      -0.51660000       0.06460000
C       -2.21590000      -0.17180000       1.32590000
C       -3.55510000      -0.87540000       1.31270000
O       -4.62410000      -0.32910000       1.39630000
C        0.63930000      -0.38710000      -1.25330000
C        1.10940000      -0.73450000      -2.30400000
H        1.09260000       1.95060000      -0.00640000
H       -0.53650000       2.01250000      -0.69440000
H       -0.31620000       1.92130000       1.06500000
H        0.54030000      -0.22310000       2.14920000
H        0.88950000      -1.65290000       1.15370000
H        1.94660000      -0.23670000       1.07870000
H       -1.93290000      -0.13660000      -0.81610000
H       -1.35860000      -1.60650000      -0.04950000
H       -1.68170000      -0.51810000       2.22140000
H       -2.39550000       0.90120000       1.42580000
H       -3.48580000      -1.98480000       1.21200000
H        1.52830000      -1.03810000      -3.23150000
