14
Properties=species:S:1:pos:R:3 gdb_33348=T pbc="F F F"
C       -0.11610000      -3.85750000      -0.16220000
C       -0.05170000      -2.65340000      -0.10140000
C        0.01850000      -1.29690000      -0.03420000
C        0.08760000      -0.09040000       0.02820000
C        0.11680000       1.35720000       0.10970000
C       -0.48550000       1.95140000       1.43120000
N        0.61790000       2.70060000       2.04410000
C        1.60930000       2.56400000       1.27090000
O        1.49480000       1.84000000       0.12950000
H       -0.17010000      -4.91680000      -0.21450000
H       -0.35410000       1.78850000      -0.77970000
H       -1.32850000       2.61700000       1.22520000
H       -0.83250000       1.16550000       2.10720000
H        2.59550000       2.98630000       1.42860000
