19
Properties=species:S:1:pos:R:3 gdb_52162=T pbc="F F F"
O       -0.09430000       0.12820000       0.11700000
C        0.06870000       1.27840000      -0.19170000
C        1.43190000       1.89840000      -0.44160000
O        1.24680000       3.26850000      -0.71050000
C        2.43050000       3.93440000      -1.04120000
C        3.02970000       3.88370000      -2.41690000
C        1.92940000       3.79550000      -3.48310000
C        1.27480000       5.09260000      -2.91350000
C        2.37930000       5.17810000      -1.85220000
H       -0.77510000       1.99090000      -0.32510000
H        2.06580000       1.73350000       0.44510000
H        1.91290000       1.37580000      -1.28380000
H        3.16330000       3.94420000      -0.23210000
H        4.07710000       3.65220000      -2.57390000
H        2.31660000       3.93820000      -4.49370000
H        1.31740000       2.88890000      -3.46910000
H        1.31420000       5.92030000      -3.62400000
H        0.25690000       5.00130000      -2.52770000
H        2.84830000       6.09310000      -1.50950000
