18
Properties=species:S:1:pos:R:3 gdb_14931=T pbc="F F F"
O       -0.10350000      -0.02990000      -0.00120000
C       -0.02870000       1.17870000       0.01450000
C        1.23310000       1.93850000       0.01000000
C        1.17410000       3.27940000       0.01890000
C        2.38010000       4.17190000       0.02960000
C        3.67400000       3.40250000       0.33970000
C        3.71360000       2.06730000      -0.41500000
C        2.53340000       1.17320000      -0.01170000
H       -0.94600000       1.81130000       0.03400000
H        0.19660000       3.76080000       0.01100000
H        2.45510000       4.66850000      -0.95020000
H        2.22850000       4.98580000       0.75010000
H        4.54400000       4.01810000       0.08930000
H        3.72640000       3.20720000       1.41840000
H        3.67030000       2.26150000      -1.49480000
H        4.65910000       1.54830000      -0.22750000
H        2.70710000       0.73570000       0.98120000
H        2.43050000       0.31730000      -0.68670000
