20
Properties=species:S:1:pos:R:3 gdb_94635=T pbc="F F F"
C       -0.34920000       1.50820000      -0.11030000
C        0.14760000       0.07730000      -0.07600000
O        1.44350000      -0.07730000      -0.70430000
C        1.94400000      -0.84720000       0.40280000
C        0.67700000      -0.56240000       1.24210000
C        0.86340000       0.34840000       2.45150000
C        1.53970000      -0.39980000       3.61980000
C        1.73870000       0.45060000       4.79110000
N        1.88650000       1.13790000       5.70820000
H        0.35060000       2.19320000       0.37470000
H       -0.46700000       1.82710000      -1.15050000
H       -1.32470000       1.59240000       0.38070000
H       -0.58840000      -0.57600000      -0.56760000
H        2.09920000      -1.90110000       0.13680000
H        2.88690000      -0.43920000       0.79070000
H        0.12430000      -1.45900000       1.53900000
H        1.47430000       1.21750000       2.18660000
H       -0.10450000       0.73350000       2.79020000
H        0.93450000      -1.26450000       3.91690000
H        2.51490000      -0.79220000       3.30820000
