19
Properties=species:S:1:pos:R:3 gdb_20071=T pbc="F F F"
C       -0.21290000       1.07230000      -0.36620000
C        1.20480000       0.64870000      -0.19610000
N        0.11110000      -0.23930000       0.18240000
C       -0.11480000      -0.42100000       1.61610000
C       -1.53910000      -0.94970000       1.86150000
C       -1.32950000      -2.46210000       1.76470000
O       -0.08210000      -2.69080000       2.40740000
C        0.76830000      -1.57680000       2.15100000
H       -0.58760000       1.83410000       0.31620000
H       -0.67510000       1.07590000      -1.34910000
H        1.79740000       0.33770000      -1.05150000
H        1.77150000       1.13040000       0.59990000
H        0.07550000       0.51330000       2.17000000
H       -1.87250000      -0.68060000       2.86850000
H       -2.25510000      -0.55630000       1.13640000
H       -2.08810000      -3.05250000       2.28620000
H       -1.29600000      -2.77960000       0.71150000
H        1.53240000      -1.83420000       1.40540000
H        1.27150000      -1.31410000       3.08840000
