21
Properties=species:S:1:pos:R:3 gdb_122384=T pbc="F F F"
C        0.16800000       1.30740000      -0.08850000
O       -0.10490000      -0.05960000       0.09340000
C        0.70760000      -0.65580000       1.08040000
C        0.34850000      -2.13500000       1.17360000
C        1.14920000      -2.84270000       2.24440000
C        1.34010000      -4.34800000       2.34670000
C        1.59600000      -4.94270000       0.96600000
O        2.63270000      -3.96170000       0.68880000
C        2.50610000      -3.44040000       2.01580000
H        1.20830000       1.47910000      -0.40910000
H       -0.50530000       1.67680000      -0.86610000
H       -0.00360000       1.88670000       0.83350000
H        1.77480000      -0.54070000       0.82510000
H        0.55420000      -0.15700000       2.05460000
H       -0.72460000      -2.22500000       1.37860000
H        0.53360000      -2.59230000       0.19810000
H        1.06760000      -2.40010000       3.23720000
H        1.11480000      -4.91060000       3.24260000
H        2.02820000      -5.94880000       1.00470000
H        0.78530000      -4.91750000       0.22880000
H        3.41820000      -3.18440000       2.54360000
