21
Properties=species:S:1:pos:R:3 gdb_111111=T pbc="F F F"
O       -0.11740000       1.43530000      -0.13490000
C       -0.00780000       0.04230000       0.14170000
C       -1.40010000      -0.54780000       0.03210000
C       -2.02950000      -0.64210000      -1.39430000
C       -1.24570000      -1.97660000      -1.57170000
C       -1.51650000      -2.10350000      -0.04420000
C       -3.04140000      -2.28890000      -0.02850000
O       -3.53610000      -2.07610000       1.28370000
C       -3.43710000      -1.17570000      -1.06410000
H        0.74980000       1.83310000      -0.01490000
H        0.69890000      -0.43780000      -0.55100000
H        0.37340000      -0.12850000       1.16160000
H       -2.03240000      -0.07580000       0.78890000
H       -1.95020000       0.18030000      -2.10450000
H       -1.67910000      -2.73630000      -2.23050000
H       -0.19230000      -1.84520000      -1.81680000
H       -0.94240000      -2.76740000       0.60360000
H       -3.32130000      -3.29230000      -0.38030000
H       -4.49720000      -2.08800000       1.24560000
H       -4.07630000      -0.42190000      -0.59370000
H       -3.95500000      -1.57520000      -1.94140000
