18
Properties=species:S:1:pos:R:3 gdb_94789=T pbc="F F F"
C        0.39060000       1.43210000      -0.21360000
C       -0.09300000       0.02640000       0.15330000
O        0.04930000      -0.90720000      -0.91870000
C        1.26720000      -1.63480000      -0.76770000
C        1.51450000      -1.70210000       0.72750000
C        1.69520000      -2.96350000       1.50250000
N        2.81070000      -2.02750000       1.34020000
C        0.71980000      -0.56100000       1.31060000
O        0.71460000      -0.19150000       2.45510000
H        1.45230000       1.43060000      -0.48070000
H       -0.17910000       1.81290000      -1.06500000
H        0.25320000       2.10300000       0.63920000
H       -1.15430000       0.05650000       0.42330000
H        1.13230000      -2.61180000      -1.24070000
H        2.09940000      -1.11810000      -1.27450000
H        1.29380000      -3.01320000       2.51080000
H        1.69460000      -3.89750000       0.94610000
H        3.44170000      -2.36300000       0.61370000
