16
Properties=species:S:1:pos:R:3 gdb_84552=T pbc="F F F"
O        0.14310000       1.41200000      -0.17410000
C        0.10890000      -0.00140000      -0.02680000
C        0.64980000      -0.49620000       1.30290000
C       -0.24440000      -1.24880000       1.95160000
N       -1.45980000      -1.37470000       1.23320000
C       -1.33940000      -0.56440000      -0.01780000
C       -1.77180000      -1.80660000      -0.84000000
C       -1.80410000      -2.55600000       0.50550000
O       -1.97830000      -3.67710000       0.87460000
H       -0.18830000       1.79530000       0.64620000
H        0.69730000      -0.37420000      -0.87430000
H        1.64080000      -0.24950000       1.65970000
H       -0.13550000      -1.76090000       2.89830000
H       -2.04840000       0.26710000      -0.04840000
H       -2.71970000      -1.73810000      -1.37690000
H       -1.00730000      -2.20670000      -1.51110000
