19
Properties=species:S:1:pos:R:3 gdb_6781=T pbc="F F F"
C        0.02030000       1.38990000       0.04170000
O        0.11170000      -0.01280000       0.05580000
C        0.61400000      -0.54390000      -1.14960000
C        0.66710000      -2.05980000      -1.02610000
C        1.22300000      -2.72620000      -2.28500000
C        1.10230000      -4.24980000      -2.23390000
N        2.01270000      -4.92060000      -3.00120000
O        0.25940000      -4.82640000      -1.57570000
H        1.00360000       1.86410000      -0.11120000
H       -0.65700000       1.74940000      -0.75000000
H       -0.37440000       1.70330000       1.01130000
H       -0.03060000      -0.24950000      -1.99790000
H        1.61890000      -0.13320000      -1.35870000
H        1.28110000      -2.32440000      -0.15860000
H       -0.33430000      -2.45030000      -0.82830000
H        0.66060000      -2.39010000      -3.16800000
H        2.26670000      -2.43630000      -2.45900000
H        2.66540000      -4.44580000      -3.59920000
H        1.92150000      -5.92010000      -3.08120000
