19
Properties=species:S:1:pos:R:3 gdb_103687=T pbc="F F F"
O       -0.15770000       1.51240000       0.04500000
C        0.00990000       0.10160000       0.15370000
C       -1.37840000      -0.50530000      -0.01110000
O       -2.24560000       0.03280000       0.95510000
C       -1.87960000      -0.50990000      -1.48840000
C       -1.42650000      -2.00030000      -1.60750000
C       -1.37230000      -2.04840000      -0.04740000
C       -2.39530000      -2.93580000      -2.27100000
O       -2.14000000      -3.67180000      -3.18930000
H        0.64900000       1.94530000       0.33720000
H        0.69940000      -0.28120000      -0.61290000
H        0.40120000      -0.17630000       1.14330000
H       -2.03450000       0.97470000       1.00780000
H       -2.96950000      -0.42050000      -1.50570000
H       -1.44330000       0.20610000      -2.18690000
H       -0.44610000      -2.11330000      -2.07380000
H       -0.53190000      -2.57510000       0.41170000
H       -2.30680000      -2.42720000       0.37690000
H       -3.42300000      -2.89680000      -1.83340000
