21
Properties=species:S:1:pos:R:3 gdb_90439=T pbc="F F F"
C        0.45380000       1.04350000      -0.95460000
C        0.18200000      -0.23030000      -0.17760000
O        0.73720000      -1.40430000      -0.83840000
C        1.43940000      -1.79190000       0.34020000
C        2.88890000      -1.21030000       0.45590000
O        3.34880000      -0.72060000      -0.78280000
C        2.34540000      -0.14340000       1.47600000
C        2.81620000       1.30300000       1.39420000
C        0.89220000      -0.59390000       1.16210000
H        1.50740000       1.10380000      -1.22930000
H       -0.13600000       1.03920000      -1.87720000
H        0.16900000       1.92790000      -0.37490000
H       -0.90360000      -0.36320000      -0.06510000
H        1.30970000      -2.84850000       0.58880000
H        3.61310000      -1.91000000       0.89560000
H        4.22670000      -0.35170000      -0.64310000
H        2.56460000      -0.51870000       2.48370000
H        2.78290000       1.69460000       0.37660000
H        2.19700000       1.95100000       2.02380000
H        3.84810000       1.39270000       1.75420000
H        0.21990000      -0.69780000       2.01420000
