23
Properties=species:S:1:pos:R:3 gdb_92975=T pbc="F F F"
C       -0.83810000       1.06220000       0.12890000
C        0.09090000      -0.14130000      -0.01890000
C        1.23460000       0.05220000      -1.04990000
C        2.32780000      -0.84330000      -0.51940000
C        2.08510000      -1.23630000       0.72960000
C        0.80470000      -0.64180000       1.28330000
C        1.10940000       0.42660000       2.32430000
C        0.12010000       0.75680000       3.41400000
C        1.39500000       0.02440000       3.75060000
H       -0.30000000       1.94680000       0.48380000
H       -1.29460000       1.31540000      -0.83430000
H       -1.64810000       0.86220000       0.83750000
H       -0.50660000      -0.98960000      -0.37540000
H        0.91860000      -0.20600000      -2.06760000
H        1.57220000       1.09900000      -1.09300000
H        3.21100000      -1.09770000      -1.09590000
H        2.74310000      -1.85080000       1.33480000
H        0.18720000      -1.40520000       1.77690000
H        1.69960000       1.25910000       1.94920000
H        0.01900000       1.79020000       3.72730000
H       -0.80770000       0.19430000       3.44220000
H        1.32040000      -1.02870000       4.00350000
H        2.16790000       0.55540000       4.29520000
