17
Properties=species:S:1:pos:R:3 gdb_65975=T pbc="F F F"
O       -0.05990000       1.38960000      -0.34300000
C       -0.00720000       0.03660000      -0.05610000
C        0.02960000      -0.40650000       1.43660000
O       -1.04780000      -1.34260000       1.21810000
C       -1.32360000      -0.76370000      -0.05640000
C       -2.66530000      -0.24920000      -0.45060000
C       -2.06630000      -1.47030000      -1.13800000
C        1.05940000      -0.64540000      -0.88190000
O        1.72360000      -0.03640000      -1.68580000
H        0.61950000       1.54240000      -1.02060000
H        0.93250000      -0.89990000       1.81080000
H       -0.25470000       0.41980000       2.09810000
H       -3.47860000      -0.41890000       0.24650000
H       -2.70220000       0.68980000      -0.99200000
H       -1.71850000      -1.37490000      -2.16200000
H       -2.48640000      -2.43940000      -0.89080000
H        1.18770000      -1.73160000      -0.70920000
