18
Properties=species:S:1:pos:R:3 gdb_92998=T pbc="F F F"
O       -0.21440000       0.94520000      -0.79060000
C       -0.19620000      -0.18710000       0.04050000
C        0.25940000       0.04480000       1.50510000
C       -0.54640000      -0.97390000       2.26860000
C       -1.54120000      -1.48900000       1.54520000
C       -1.58280000      -0.89080000       0.16730000
O       -2.63020000       0.09810000       0.10880000
C       -3.28690000       0.24680000      -1.06140000
N       -4.06760000       1.22450000      -1.22260000
H       -0.92670000       1.51740000      -0.47830000
H        0.49480000      -0.89330000      -0.43110000
H        1.34080000      -0.07550000       1.62590000
H        0.01920000       1.06550000       1.83170000
H       -0.33220000      -1.23590000       3.29910000
H       -2.27250000      -2.21060000       1.88840000
H       -1.75080000      -1.62080000      -0.63340000
H       -3.07380000      -0.54960000      -1.78720000
H       -4.50300000       1.17390000      -2.14120000
