15
Properties=species:S:1:pos:R:3 gdb_48060=T pbc="F F F"
O       -0.62110000       1.17960000      -0.98130000
C        0.10390000       1.00700000      -0.04150000
C        1.17150000       1.99400000       0.45580000
O        2.04270000       1.52120000       1.15670000
C        1.16520000       3.42930000       0.03710000
C        2.00700000       4.34770000       0.94370000
C        2.56620000       3.95640000      -0.36790000
C        0.02230000       4.01010000      -0.60840000
C       -0.90530000       4.57790000      -1.12040000
H        0.13990000       0.06330000       0.54330000
H        1.61910000       5.35060000       1.06980000
H        2.40800000       3.86730000       1.82830000
H        3.35000000       3.20830000      -0.38490000
H        2.57100000       4.67450000      -1.17830000
H       -1.73720000       5.04070000      -1.59070000
