13
Properties=species:S:1:pos:R:3 gdb_128445=T pbc="F F F"
C        0.01760000       1.29350000       0.12820000
O        0.12150000      -0.13460000       0.00410000
C        0.69300000      -0.56430000      -1.12530000
O        1.11230000       0.12560000      -2.01390000
C        0.75050000      -2.05770000      -1.15160000
N        1.24220000      -2.79580000      -2.10160000
C        1.03400000      -4.05490000      -1.60510000
N        0.45550000      -4.10150000      -0.43310000
O        0.26130000      -2.76030000      -0.12110000
H        1.00970000       1.75020000       0.10310000
H       -0.58350000       1.70290000      -0.68700000
H       -0.46410000       1.46840000       1.08910000
H        1.31890000      -4.95650000      -2.12700000
