17
Properties=species:S:1:pos:R:3 gdb_39354=T pbc="F F F"
C        0.00750000       1.49980000       0.35460000
O        1.26160000       2.02610000      -0.09880000
C        1.97860000       1.05890000      -0.84920000
C        1.95550000       1.17860000      -2.38180000
O        2.14650000      -0.16180000      -2.84520000
C        1.51160000      -1.07790000      -1.94650000
C        1.24380000      -0.25700000      -0.70490000
O        1.07450000      -0.73830000       0.61580000
C        0.00500000       0.02680000       0.01530000
H       -0.08290000       1.69670000       1.42900000
H       -0.82850000       1.99520000      -0.16030000
H        3.00730000       1.02500000      -0.47330000
H        0.98920000       1.59170000      -2.71220000
H        2.75930000       1.78750000      -2.80040000
H        0.59290000      -1.48570000      -2.38930000
H        2.19750000      -1.90870000      -1.74720000
H       -0.92480000      -0.51100000      -0.14560000
