19
Properties=species:S:1:pos:R:3 gdb_105393=T pbc="F F F"
C       -0.18910000       1.41540000      -0.99220000
C       -0.03710000       0.18950000      -0.08520000
C       -1.35920000      -0.47350000       0.23490000
C       -2.03730000      -1.36060000      -0.77710000
C       -1.46570000      -1.95190000       0.49440000
O       -0.28370000      -2.69190000       0.46560000
O       -2.26680000       0.35960000       0.95210000
C       -2.07470000       0.46360000       2.28610000
O       -2.74250000       1.17470000       2.97480000
H        0.78240000       1.88300000      -1.17590000
H       -0.61950000       1.13810000      -1.95990000
H       -0.84590000       2.16180000      -0.53700000
H        0.61310000      -0.55940000      -0.54520000
H        0.45040000       0.47920000       0.85460000
H       -3.11530000      -1.29270000      -0.86640000
H       -1.49870000      -1.54180000      -1.70100000
H       -2.18820000      -2.25740000       1.25130000
H       -0.46740000      -3.53290000       0.03350000
H       -1.25480000      -0.18030000       2.65420000
