20
Properties=species:S:1:pos:R:3 gdb_81696=T pbc="F F F"
C       -0.29810000       1.31400000       0.14370000
C        0.10560000      -0.15380000       0.04870000
C        0.88700000      -0.54730000      -1.24310000
C        2.21450000      -0.36080000      -0.45840000
C        1.39360000      -0.50750000       0.84510000
O        1.39470000      -1.82970000       1.37870000
C        1.11080000      -2.89980000       0.58780000
N        0.80750000      -3.03670000      -0.62890000
C        0.65370000      -2.00480000      -1.63650000
H        0.54330000       1.98270000      -0.06960000
H       -1.09190000       1.54590000      -0.57390000
H       -0.67010000       1.55650000       1.14500000
H       -0.75060000      -0.79320000       0.28680000
H        0.73490000       0.09730000      -2.11490000
H        3.01130000      -1.09090000      -0.61920000
H        2.63060000       0.64460000      -0.55630000
H        1.65370000       0.13010000       1.69250000
H        1.18070000      -3.79000000       1.21340000
H       -0.36220000      -2.10930000      -2.04410000
H        1.32870000      -2.26700000      -2.46360000
