22
Properties=species:S:1:pos:R:3 gdb_7836=T pbc="F F F"
C        0.38340000       1.41790000       0.40670000
C        0.04340000      -0.02800000       0.03850000
C        0.70040000      -0.46280000      -1.26620000
O        0.46990000      -0.96540000       1.02810000
C       -0.24430000      -0.93000000       2.22560000
C        0.21130000      -1.86760000       3.29980000
C        0.38000000      -0.37010000       3.48800000
C        1.76790000       0.22890000       3.47080000
H        1.46660000       1.54630000       0.49780000
H        0.01950000       2.10030000      -0.36840000
H       -0.07930000       1.70620000       1.35420000
H       -1.05180000      -0.11390000      -0.06620000
H        1.79000000      -0.39790000      -1.18190000
H        0.43640000      -1.49720000      -1.50060000
H        0.37910000       0.17800000      -2.09260000
H       -1.31860000      -0.79560000       2.09080000
H       -0.53120000      -2.40450000       3.87980000
H        1.11210000      -2.43290000       3.08330000
H       -0.31410000       0.10120000       4.18020000
H        2.36940000      -0.22000000       2.67590000
H        1.73550000       1.30940000       3.29250000
H        2.28150000       0.06320000       4.42410000
