21
Properties=species:S:1:pos:R:3 gdb_112931=T pbc="F F F"
C       -0.02200000       1.53850000      -0.02300000
C       -0.03780000       0.08250000      -0.02950000
C       -0.04750000      -1.12270000      -0.04110000
C       -0.07850000      -2.57100000      -0.02980000
C        0.31450000      -3.33130000       1.28010000
C       -0.82200000      -4.34630000       0.98820000
C       -1.64530000      -4.85090000       2.15330000
O       -2.69380000      -5.65580000       1.63230000
C       -1.45710000      -3.30760000       0.02630000
H        0.39670000       1.92950000       0.91140000
H        0.58210000       1.93610000      -0.84630000
H       -1.03260000       1.94940000      -0.12760000
H        0.51010000      -2.96500000      -0.86610000
H        1.33800000      -3.70510000       1.35490000
H        0.09430000      -2.72020000       2.16060000
H       -0.44190000      -5.20560000       0.42550000
H       -1.00310000      -5.42550000       2.84220000
H       -2.04480000      -3.99210000       2.71850000
H       -3.24010000      -5.95210000       2.36600000
H       -2.20540000      -2.69480000       0.53690000
H       -1.87370000      -3.66330000      -0.91740000
