16
Properties=species:S:1:pos:R:3 gdb_6657=T pbc="F F F"
N       -0.04110000       1.32810000       0.21310000
C        0.05460000       0.02200000      -0.16840000
O        1.09280000      -0.46880000      -0.56490000
C       -1.25160000      -0.77080000      -0.07680000
C       -0.99300000      -2.27280000       0.04750000
C       -2.29780000      -3.08600000      -0.04560000
C       -2.07590000      -4.52400000       0.09340000
N       -1.88970000      -5.65860000       0.20790000
H        0.76940000       1.91620000       0.10850000
H       -0.90650000       1.74400000       0.50810000
H       -1.86180000      -0.40470000       0.75810000
H       -1.82370000      -0.56170000      -0.99170000
H       -0.29900000      -2.57930000      -0.73830000
H       -0.49620000      -2.48850000       0.99840000
H       -3.00470000      -2.77210000       0.73210000
H       -2.79200000      -2.90430000      -1.00770000
