18
Properties=species:S:1:pos:R:3 gdb_9648=T pbc="F F F"
C        0.24070000       1.57380000       0.05240000
C       -0.20380000       0.12040000      -0.09220000
N        0.53590000      -0.51280000      -1.18290000
C        1.76240000      -1.22460000      -0.88340000
C        0.53640000      -1.97600000      -1.32310000
C       -0.18580000      -2.90450000      -0.35890000
C        0.46470000      -2.41560000      -2.70650000
N        0.40490000      -2.79870000      -3.79560000
H        1.30250000       1.63390000       0.31240000
H        0.09010000       2.11640000      -0.88440000
H       -0.32990000       2.07060000       0.84270000
H       -0.07580000      -0.40090000       0.86980000
H       -1.26860000       0.07690000      -0.34650000
H        2.59150000      -1.07180000      -1.56800000
H        2.04260000      -1.36010000       0.16180000
H       -0.02880000      -2.60400000       0.67800000
H       -1.26100000      -2.91800000      -0.56120000
H        0.19010000      -3.92470000      -0.47610000
