21
Properties=species:S:1:pos:R:3 gdb_26135=T pbc="F F F"
C        0.00410000       1.48500000      -0.02860000
N       -0.03480000       0.03250000       0.09000000
C        0.81540000      -0.47780000       1.15870000
C       -1.31810000      -0.54170000       0.01760000
C       -1.85740000      -1.35510000      -0.95840000
C       -1.15110000      -1.81270000      -2.19730000
C       -3.19160000      -1.66140000      -0.55350000
C       -3.42670000      -1.03310000       0.64580000
N       -2.28910000      -0.35330000       0.99240000
H        1.03620000       1.81160000      -0.19850000
H       -0.60320000       1.79670000      -0.88150000
H       -0.36630000       2.01470000       0.86940000
H        0.52010000      -0.12980000       2.16660000
H        0.78830000      -1.56990000       1.15490000
H        1.84900000      -0.15480000       0.99100000
H       -1.08130000      -2.90590000      -2.24700000
H       -1.66890000      -1.48520000      -3.10670000
H       -0.13630000      -1.40690000      -2.22030000
H       -3.89680000      -2.27790000      -1.09080000
H       -4.30200000      -1.01380000       1.27570000
H       -2.17170000       0.19810000       1.82380000
