19
Properties=species:S:1:pos:R:3 gdb_56169=T pbc="F F F"
C        0.23240000       1.29710000      -0.19720000
C        0.26000000      -0.21240000      -0.20040000
O        1.02190000      -0.89670000       0.43390000
O       -0.70710000      -0.69900000      -1.01400000
C       -0.81330000      -2.14080000      -1.12220000
C       -0.15900000      -2.60600000      -2.39420000
O       -0.76290000      -2.10890000      -3.55780000
C        1.32940000      -2.86470000      -2.41770000
C        0.34110000      -4.01280000      -2.49210000
H        1.00820000       1.67290000       0.46840000
H        0.39360000       1.67750000      -1.20990000
H       -0.74830000       1.65280000       0.13060000
H       -0.35940000      -2.60020000      -0.24330000
H       -1.88690000      -2.34450000      -1.14960000
H       -0.69890000      -1.14750000      -3.51740000
H        1.84830000      -2.60360000      -3.33280000
H        1.89110000      -2.71830000      -1.50240000
H        0.23600000      -4.66680000      -1.63330000
H        0.20760000      -4.49540000      -3.45320000
