19
Properties=species:S:1:pos:R:3 gdb_72637=T pbc="F F F"
C        0.09700000       1.64680000      -0.03400000
C        0.08750000       0.14650000       0.04780000
C        0.64540000      -0.79520000      -1.01690000
O        1.06800000      -1.74760000      -0.00380000
C        0.62680000      -0.85950000       1.02340000
C        1.42280000      -0.82550000       2.28700000
C       -0.89670000      -0.69940000       0.88460000
C       -1.64540000      -0.05020000       1.97760000
O       -2.75870000      -0.37440000       2.31970000
H        1.05260000       2.00260000      -0.43430000
H       -0.69960000       2.01120000      -0.69250000
H       -0.04570000       2.11540000       0.94310000
H       -0.05250000      -1.23200000      -1.73990000
H        1.51590000      -0.38110000      -1.53930000
H        2.47390000      -0.61540000       2.06720000
H        1.04880000      -0.06060000       2.97210000
H        1.36700000      -1.79360000       2.79610000
H       -1.43780000      -1.50840000       0.40000000
H       -1.11510000       0.77710000       2.50210000
