16
Properties=species:S:1:pos:R:3 gdb_17199=T pbc="F F F"
O        0.12510000       1.43240000      -0.07900000
C        0.07620000       0.04810000      -0.05810000
C        0.03620000      -0.68120000       1.32670000
N       -1.36500000      -0.07780000       1.46850000
C       -1.31710000      -0.65440000       0.05130000
C       -0.57690000      -1.88030000       0.59710000
C       -0.09030000      -3.16490000       0.07710000
N       -1.16400000      -3.09770000       1.11690000
H       -0.51460000       1.71310000       0.59350000
H        0.77110000      -0.34520000      -0.80060000
H        0.76250000      -0.65400000       2.14080000
H       -1.94340000      -0.68150000       2.05810000
H       -2.17270000      -0.60150000      -0.62160000
H       -0.42320000      -3.53610000      -0.88810000
H        0.89590000      -3.50830000       0.37930000
H       -0.76940000      -3.32880000       2.02630000
