20
Properties=species:S:1:pos:R:3 gdb_99854=T pbc="F F F"
C        0.09980000       1.54650000      -0.00470000
C        0.01270000       0.02400000       0.09670000
O        0.61610000      -0.45330000       1.28780000
C       -1.44220000      -0.54210000      -0.05260000
N       -2.15620000      -0.11080000      -1.26100000
C       -1.39970000      -2.10490000      -0.06700000
N       -2.68470000      -2.77590000      -0.07270000
C       -2.21190000      -0.10380000       1.12540000
N       -2.75530000       0.24420000       2.08520000
H        1.13840000       1.85760000       0.13210000
H       -0.23890000       1.91190000      -0.97820000
H       -0.50780000       2.02670000       0.77140000
H        0.59520000      -0.42860000      -0.71620000
H        0.18460000      -0.01970000       2.03460000
H       -2.32170000       0.89010000      -1.25620000
H       -1.58570000      -0.32010000      -2.07610000
H       -0.84830000      -2.38160000      -0.97640000
H       -0.80450000      -2.44260000       0.78290000
H       -3.14400000      -2.66060000       0.82600000
H       -3.28610000      -2.33630000      -0.76450000
