17
Properties=species:S:1:pos:R:3 gdb_14015=T pbc="F F F"
O        0.49300000      -0.01670000      -0.62630000
C        0.25620000       1.05020000      -0.11420000
N        1.17640000       1.82890000       0.56360000
C        2.55290000       2.00880000       0.14540000
C        1.59980000       3.16380000       0.21420000
C        1.15820000       4.04140000      -0.96590000
C        1.63960000       5.27140000      -0.13830000
C        1.66790000       4.38100000       1.14070000
H       -0.75890000       1.49070000      -0.07550000
H        3.30340000       1.88130000       0.92140000
H        2.82250000       1.61620000      -0.83250000
H        1.63060000       3.85580000      -1.93320000
H        0.07220000       4.04040000      -1.09830000
H        2.63870000       5.59870000      -0.43450000
H        0.97720000       6.13790000      -0.11960000
H        0.75800000       4.48350000       1.73920000
H        2.53500000       4.46050000       1.80010000
