19
Properties=species:S:1:pos:R:3 gdb_76846=T pbc="F F F"
C       -0.33030000       1.61910000       0.30090000
C       -0.09410000       0.11730000       0.21080000
C        0.25720000      -0.48540000      -1.18660000
N        1.03350000       0.37770000      -2.07400000
C        2.26370000       0.09350000      -1.49740000
O        3.35600000       0.57250000      -1.64330000
C        1.60370000      -0.96250000      -0.56210000
N        1.17910000      -0.44270000       0.74400000
C        2.09430000       0.30270000       1.58420000
H        0.46210000       2.19420000      -0.18560000
H       -1.28440000       1.87770000      -0.17130000
H       -0.38500000       1.94010000       1.34580000
H       -0.94770000      -0.40530000       0.66380000
H       -0.46490000      -1.13700000      -1.67620000
H        0.74920000       1.21970000      -2.55790000
H        1.99860000      -1.98060000      -0.57490000
H        2.49710000       1.22180000       1.13000000
H        1.59600000       0.56830000       2.52230000
H        2.94510000      -0.34070000       1.83260000
