16
Properties=species:S:1:pos:R:3 gdb_34978=T pbc="F F F"
N       -0.20580000      -1.23800000      -0.14430000
C       -0.12620000      -0.08650000      -0.07210000
C       -0.01330000       1.36060000       0.02360000
C       -0.13020000       2.06130000       1.41720000
C        0.96050000       1.34330000       2.23520000
C        2.10510000       1.87790000       1.35350000
O        1.99480000       3.31560000       1.59850000
C        0.81120000       3.21920000       0.81270000
C        1.36530000       2.05520000      -0.03420000
H       -0.68240000       1.82320000      -0.70850000
H       -1.10280000       2.24970000       1.86450000
H        1.06450000       1.71390000       3.25590000
H        0.84610000       0.25740000       2.24110000
H        3.11560000       1.48810000       1.45210000
H        0.38710000       4.15670000       0.45850000
H        1.95450000       2.17040000      -0.94050000
