20
Properties=species:S:1:pos:R:3 gdb_91596=T pbc="F F F"
C       -0.19200000       1.55260000      -0.02130000
C        0.03000000       0.04200000      -0.00770000
C        0.89860000      -0.50920000      -1.18960000
C        1.96160000      -1.34210000      -0.45350000
C        1.19220000      -1.92160000       0.74130000
C        0.79530000      -0.51390000       1.23940000
C        2.16050000       0.13570000       1.25370000
N        2.59620000       1.01030000       2.05260000
O        2.86070000      -0.39940000       0.19650000
H        0.75610000       2.09690000       0.01880000
H       -0.72130000       1.85680000      -0.93040000
H       -0.79080000       1.87110000       0.83820000
H       -0.94720000      -0.45380000      -0.02270000
H        0.31570000      -1.12520000      -1.88030000
H        1.37300000       0.28930000      -1.76610000
H        2.56680000      -2.01370000      -1.06070000
H        0.33870000      -2.53940000       0.45150000
H        1.83450000      -2.47310000       1.43200000
H        0.26380000      -0.42360000       2.18400000
H        3.55360000       1.27150000       1.80670000
