20
Properties=species:S:1:pos:R:3 gdb_56742=T pbc="F F F"
C       -0.03870000       1.56640000       0.01540000
C       -0.02190000       0.02480000      -0.03320000
C       -1.37370000      -0.52860000       0.03650000
C       -2.48730000      -0.98150000       0.06220000
C        0.69790000      -0.49000000      -1.27790000
C        2.15460000      -0.23320000      -1.73880000
N        1.62340000      -1.14930000      -2.85400000
C        0.98270000      -1.94730000      -1.70370000
C        0.35260000      -0.28380000      -2.77290000
H        0.98280000       1.95780000      -0.00170000
H       -0.58040000       1.97370000      -0.84300000
H       -0.53000000       1.91980000       0.92500000
H        0.54090000      -0.33830000       0.83930000
H       -3.46950000      -1.38310000       0.09980000
H        2.42010000       0.76800000      -2.08960000
H        2.96590000      -0.68010000      -1.15660000
H        1.70560000      -2.52330000      -1.11830000
H        0.13700000      -2.56470000      -2.01580000
H       -0.53930000      -0.77830000      -3.16520000
H        0.48040000       0.71340000      -3.20300000
