19
Properties=species:S:1:pos:R:3 gdb_103728=T pbc="F F F"
C       -0.01760000       1.44730000      -0.11440000
C        0.08450000      -0.04850000       0.10530000
C        1.47020000      -0.70970000       0.12310000
C        0.74120000      -0.56460000       1.40810000
O        1.25270000       0.41780000       2.26740000
C        0.23170000      -1.77790000       2.19120000
O        0.11590000      -2.97730000       1.44820000
C       -1.02490000      -0.84140000      -0.49250000
O       -1.98930000      -0.33450000      -1.02030000
H        0.78320000       1.97590000       0.40390000
H        0.03920000       1.67810000      -1.18210000
H       -0.98210000       1.82270000       0.24030000
H        1.55100000      -1.69780000      -0.31770000
H        2.31860000      -0.05600000      -0.04470000
H        0.51530000       0.82690000       2.73550000
H        0.91020000      -1.89890000       3.04720000
H       -0.76820000      -1.57390000       2.59260000
H        1.00370000      -3.31060000       1.28530000
H       -0.91620000      -1.94090000      -0.42690000
