27
Properties=species:S:1:pos:R:3 gdb_60268=T pbc="F F F"
C        0.88410000      -0.37630000      -1.10890000
C        0.01000000       0.06150000       0.07480000
C       -0.04670000       1.59280000       0.16300000
C       -1.41420000      -0.52320000       0.00530000
C       -1.52590000      -2.04970000       0.06740000
C       -1.00150000      -2.69430000       1.36890000
C       -1.69820000      -4.07900000       1.46370000
C       -2.85910000      -4.04510000       0.42830000
C       -2.97220000      -2.57220000      -0.00130000
H        1.88340000       0.06670000      -1.04190000
H        1.00810000      -1.46250000      -1.15100000
H        0.44290000      -0.05410000      -2.06030000
H        0.48210000      -0.30650000       0.99650000
H       -0.50970000       2.02040000      -0.73480000
H       -0.63380000       1.92210000       1.02700000
H        0.95600000       2.02380000       0.25470000
H       -2.00390000      -0.10310000       0.83300000
H       -1.89370000      -0.16580000      -0.91790000
H       -0.97790000      -2.48630000      -0.77960000
H        0.08890000      -2.77290000       1.39650000
H       -1.29370000      -2.06500000       2.21950000
H       -1.00140000      -4.89210000       1.24050000
H       -2.06900000      -4.26040000       2.47670000
H       -2.60650000      -4.66380000      -0.43990000
H       -3.79540000      -4.43950000       0.83290000
H       -3.59250000      -2.01290000       0.71270000
H       -3.42690000      -2.44710000      -0.98920000
