16
Properties=species:S:1:pos:R:3 gdb_302=T pbc="F F F"
C       -0.06870000       1.52220000      -0.09060000
C        0.02750000       0.02090000       0.06080000
C        1.33150000      -0.72310000      -0.18080000
C        0.72360000      -0.66110000       1.20320000
C        1.40610000       0.10090000       2.31650000
O        0.04320000      -1.81200000       1.64680000
H        0.85350000       2.02560000       0.21500000
H       -0.25440000       1.79260000      -1.13590000
H       -0.88750000       1.93490000       0.50950000
H       -0.85680000      -0.52060000      -0.26420000
H        1.28550000      -1.67130000      -0.70510000
H        2.22260000      -0.13410000      -0.37790000
H        1.89950000       1.00550000       1.95260000
H        0.68240000       0.38560000       3.08720000
H        2.17490000      -0.52180000       2.79130000
H        0.70440000      -2.43940000       1.96070000
