17
Properties=species:S:1:pos:R:3 gdb_55110=T pbc="F F F"
N       -0.11060000       1.32250000       0.13890000
C       -0.03210000      -0.06240000       0.13800000
O        1.01710000      -0.67450000       0.07300000
N       -1.25670000      -0.69460000       0.19510000
C       -2.54040000      -0.23610000      -0.37750000
C       -2.85660000      -1.71160000      -0.65880000
C       -4.11660000      -2.44190000      -0.56540000
O       -3.48290000      -2.17350000      -1.82990000
C       -1.43760000      -2.09690000      -0.22060000
H        0.77610000       1.76530000       0.32620000
H       -0.89790000       1.75110000       0.60120000
H       -3.20000000       0.28100000       0.32870000
H       -2.43040000       0.36670000      -1.28690000
H       -4.11550000      -3.48640000      -0.25730000
H       -5.04590000      -1.90260000      -0.38720000
H       -0.77950000      -2.38990000      -1.04540000
H       -1.34910000      -2.82470000       0.59120000
