17
Properties=species:S:1:pos:R:3 gdb_73178=T pbc="F F F"
C       -0.25030000       1.34930000      -0.16930000
C        0.02590000      -0.10760000       0.07120000
O       -1.15340000      -0.87360000       0.36970000
C       -0.51460000      -1.52670000       1.49960000
C        0.80720000      -0.80230000       1.21050000
O        1.64520000      -1.50990000       0.28260000
C        1.01710000      -0.86990000      -0.87010000
C        0.46860000      -1.78770000      -1.84620000
C        0.01870000      -2.53680000      -2.67110000
H        0.67840000       1.90660000      -0.32380000
H       -0.87430000       1.46490000      -1.06260000
H       -0.78840000       1.78480000       0.67700000
H       -1.00670000      -1.25410000       2.44130000
H       -0.47380000      -2.61490000       1.39230000
H        1.36570000      -0.32960000       2.02000000
H        1.73790000      -0.19220000      -1.34820000
H       -0.38620000      -3.20180000      -3.39370000
