20
Properties=species:S:1:pos:R:3 gdb_61414=T pbc="F F F"
C       -0.19710000       1.51380000      -0.06210000
C        0.00300000      -0.01080000       0.03350000
C        0.78850000      -0.41300000       1.28250000
C        2.27620000      -0.09310000       1.16270000
N        2.96520000      -0.15000000       2.34070000
O        2.81820000       0.18950000       0.10950000
C       -1.31540000      -0.77960000      -0.06360000
C       -2.21590000      -0.46250000      -1.24720000
O       -1.63280000      -1.61720000       0.75220000
H        0.77630000       2.00900000      -0.03790000
H       -0.69270000       1.80220000      -0.99260000
H       -0.79890000       1.88750000       0.77420000
H        0.60150000      -0.30720000      -0.83950000
H        0.37410000       0.06950000       2.17580000
H        0.67660000      -1.48990000       1.45200000
H        2.54380000      -0.50050000       3.18330000
H        3.96820000      -0.06720000       2.30460000
H       -1.64220000      -0.32650000      -2.16900000
H       -2.94500000      -1.26460000      -1.36900000
H       -2.75540000       0.47320000      -1.06180000
