15
Properties=species:S:1:pos:R:3 gdb_18683=T pbc="F F F"
O       -0.03270000       0.01710000       0.41490000
C       -0.04660000       1.17350000       0.07750000
C       -1.31670000       1.97940000      -0.16330000
O       -1.24530000       3.15460000       0.64100000
C       -0.26370000       4.05240000       0.16200000
C        1.09220000       3.38430000       0.00890000
C        1.72230000       2.57690000       1.09590000
N        1.13590000       1.92610000      -0.07980000
H       -1.44150000       2.23320000      -1.22820000
H       -2.17670000       1.40120000       0.17480000
H       -0.56910000       4.45970000      -0.81660000
H       -0.22210000       4.88140000       0.87500000
H        1.75800000       3.88060000      -0.69540000
H        2.80370000       2.52090000       1.17740000
H        1.17860000       2.47400000       2.03130000
