16
Properties=species:S:1:pos:R:3 gdb_47706=T pbc="F F F"
O        0.00990000      -0.07740000      -0.03730000
C       -0.06150000       1.12900000       0.00500000
C       -1.37550000       1.88290000       0.07070000
C       -1.42060000       3.03570000      -0.94440000
C       -0.70190000       4.28140000      -0.41700000
O        0.35340000       4.00310000       0.52020000
C        1.40770000       3.21670000       0.19150000
O        2.54000000       3.61320000       0.22160000
N        1.11540000       1.88180000      -0.08210000
H       -2.15030000       1.14080000      -0.12650000
H       -1.52660000       2.26290000       1.08770000
H       -0.98240000       2.70360000      -1.89130000
H       -2.45910000       3.30520000      -1.16120000
H       -0.30220000       4.89500000      -1.23220000
H       -1.38990000       4.89870000       0.16490000
H        1.94490000       1.31420000      -0.20380000
