21
Properties=species:S:1:pos:R:3 gdb_85862=T pbc="F F F"
C       -0.73960000       1.35780000       0.07830000
C       -0.03580000       0.01550000      -0.05440000
O       -0.94940000      -0.99660000      -0.47140000
C        1.29960000      -0.02320000      -0.86820000
C        1.93240000      -0.90790000       0.24570000
O        3.23860000      -0.62690000       0.68500000
C        0.74510000      -0.53860000       1.14830000
C        0.87480000       0.08830000       2.50950000
C        0.20960000      -1.25670000       2.34310000
H       -0.05920000       2.13440000       0.43950000
H       -1.13030000       1.68430000      -0.89380000
H       -1.58460000       1.28310000       0.77060000
H       -1.32170000      -0.72380000      -1.31750000
H        1.23900000      -0.44660000      -1.87380000
H        1.78340000       0.95800000      -0.91890000
H        1.93450000      -1.96810000      -0.02120000
H        3.26500000       0.29950000       0.94910000
H        1.86690000       0.10860000       2.95050000
H        0.25500000       0.94510000       2.75330000
H       -0.86840000      -1.31300000       2.44970000
H        0.74400000      -2.13710000       2.68570000
