20
Properties=species:S:1:pos:R:3 gdb_14133=T pbc="F F F"
C        0.04350000       1.52300000      -0.24120000
C        0.07480000       0.02270000      -0.05170000
C        1.38510000      -0.72750000      -0.03150000
C        0.55890000      -0.61590000       1.22870000
C        1.06450000       0.21360000       2.42430000
C        0.81390000      -0.69250000       3.60430000
C        0.16610000      -1.80530000       3.26640000
C       -0.14430000      -1.86540000       1.79230000
H        0.90840000       2.00460000       0.22580000
H        0.05800000       1.78310000      -1.30550000
H       -0.85860000       1.96650000       0.19610000
H       -0.75050000      -0.49910000      -0.53300000
H        1.44330000      -1.69270000      -0.52560000
H        2.29890000      -0.14200000      -0.09010000
H        2.12440000       0.48270000       2.32780000
H        0.52060000       1.16270000       2.53740000
H        1.12300000      -0.42920000       4.61010000
H       -0.13390000      -2.58790000       3.95490000
H       -1.22990000      -1.84440000       1.61510000
H        0.22070000      -2.79120000       1.32800000
