17
Properties=species:S:1:pos:R:3 gdb_89938=T pbc="F F F"
C        0.34790000       1.58800000      -0.01760000
C        0.03600000       0.11530000       0.10740000
O        0.76800000      -0.71470000      -0.84960000
C        1.23780000      -1.60480000       0.18720000
C        2.59230000      -1.14340000       0.76740000
O        1.93000000      -0.24350000       1.69100000
C        0.62770000      -0.68420000       1.28330000
C        0.98210000      -3.00000000      -0.04770000
C        0.78480000      -4.17170000      -0.23090000
H        1.39510000       1.77940000       0.22600000
H        0.15010000       1.92560000      -1.03930000
H       -0.28310000       2.16960000       0.66270000
H       -1.04080000      -0.07650000      -0.00160000
H        3.14930000      -1.92120000       1.30170000
H        3.23730000      -0.62450000       0.05170000
H       -0.00840000      -0.98370000       2.11720000
H        0.60580000      -5.20520000      -0.39860000
