18
Properties=species:S:1:pos:R:3 gdb_33146=T pbc="F F F"
O        0.06820000       0.31700000       1.18370000
C       -0.07120000       0.19610000      -0.23880000
C       -1.37760000      -0.54040000      -0.53580000
C       -1.37380000      -2.00570000      -0.20340000
C       -1.56400000      -3.04250000      -1.09580000
N       -1.54640000      -4.21940000      -0.40490000
C       -1.33240000      -3.97360000       0.93660000
C       -1.22480000      -2.60990000       1.08830000
O       -1.03970000      -1.97700000       2.27650000
H        0.98130000       0.53440000       1.39220000
H       -0.09290000       1.19920000      -0.68880000
H        0.77660000      -0.35730000      -0.66360000
H       -2.17590000      -0.01490000       0.00710000
H       -1.59570000      -0.41450000      -1.60240000
H       -1.72600000      -3.01990000      -2.16230000
H       -1.65740000      -5.13040000      -0.81040000
H       -1.27750000      -4.76690000       1.66240000
H       -0.67500000      -1.09690000       2.08010000
