22
Properties=species:S:1:pos:R:3 gdb_112818=T pbc="F F F"
C        0.00780000       1.52150000      -0.11490000
C        0.01790000       0.00610000       0.07450000
N       -1.32250000      -0.53770000       0.13420000
C       -2.15350000      -0.28530000       1.32810000
C       -2.64770000      -1.75900000       1.28350000
O       -3.95780000      -1.99310000       0.84680000
C       -1.49480000      -1.99510000       0.25120000
C       -1.80430000      -2.72830000      -1.04480000
O       -2.90670000      -2.09390000      -1.69670000
H        1.02850000       1.91270000      -0.16780000
H       -0.52020000       1.78960000      -1.03440000
H       -0.49660000       2.01800000       0.72070000
H        0.53680000      -0.46600000      -0.76940000
H        0.59940000      -0.24960000       0.98520000
H       -1.56780000      -0.06080000       2.23540000
H       -2.92530000       0.48130000       1.20100000
H       -2.53070000      -2.29880000       2.22610000
H       -3.97310000      -1.81700000      -0.10600000
H       -0.63460000      -2.50070000       0.72550000
H       -0.91930000      -2.71630000      -1.69950000
H       -2.03390000      -3.77780000      -0.80850000
H       -3.22340000      -2.67870000      -2.39120000
