18
Properties=species:S:1:pos:R:3 gdb_23218=T pbc="F F F"
C       -0.04450000       1.52920000       0.01780000
C        0.03070000       0.00260000       0.01120000
C        0.97420000      -0.58080000      -1.07730000
C        1.19170000      -2.05180000      -0.66010000
C        1.94770000      -1.29890000       0.46450000
O        2.29770000      -0.27270000      -0.52720000
C        0.80780000      -0.59780000       1.18310000
N        0.51150000      -0.46850000       2.40710000
O        1.42480000      -1.15230000       3.23720000
H        0.96220000       1.95510000       0.00630000
H       -0.59070000       1.89700000      -0.85730000
H       -0.55740000       1.88300000       0.91610000
H       -0.97490000      -0.42820000      -0.05700000
H        0.83360000      -0.25740000      -2.10840000
H        0.32860000      -2.67040000      -0.40160000
H        1.88150000      -2.57180000      -1.32560000
H        2.78050000      -1.69820000       1.03510000
H        1.09590000      -0.93890000       4.11690000
