15
Properties=species:S:1:pos:R:3 gdb_13164=T pbc="F F F"
O       -0.88250000       1.37850000      -0.01460000
C        0.22050000       1.05220000      -0.37040000
C        1.45340000       1.95470000      -0.36850000
O        2.52300000       1.50580000      -0.75560000
N        1.27340000       3.21320000       0.07000000
C        0.15110000       4.01690000       0.58130000
C        1.13870000       5.20970000       0.73110000
C        2.26370000       4.28460000       0.18100000
H        0.46600000       0.03790000      -0.74660000
H       -0.65730000       4.15310000      -0.14150000
H       -0.27810000       3.63180000       1.50980000
H        0.91040000       6.07000000       0.10180000
H        1.29000000       5.54790000       1.75630000
H        3.07780000       4.05120000       0.87440000
H        2.69800000       4.57380000      -0.78120000
