17
Properties=species:S:1:pos:R:3 gdb_74350=T pbc="F F F"
C       -0.02160000       1.50620000       0.04720000
C       -0.05130000       0.01440000       0.00800000
C       -1.09910000      -0.82030000       0.04800000
C       -0.72180000      -2.28900000      -0.00060000
C        0.81260000      -2.26170000      -0.16400000
C        1.20420000      -0.77840000      -0.10980000
O        2.32600000      -0.33240000      -0.15820000
C       -1.14770000      -2.96850000       1.29660000
O       -2.05210000      -3.75270000       1.39610000
H        0.59340000       1.85220000       0.88490000
H        0.44690000       1.90330000      -0.85970000
H       -1.02250000       1.93310000       0.14340000
H       -2.13840000      -0.51740000       0.12480000
H       -1.24000000      -2.80520000      -0.81480000
H        1.34440000      -2.81060000       0.62050000
H        1.12910000      -2.69310000      -1.11760000
H       -0.54310000      -2.65770000       2.18090000
