15
Properties=species:S:1:pos:R:3 gdb_130439=T pbc="F F F"
N       -1.05140000       0.82400000       0.67180000
H       -0.83810000      -0.15900000       0.80190000
H       -1.33120000       0.94240000      -0.29770000
H       -2.17250000       1.76000000       1.71780000
C        0.13320000       1.65630000       0.97170000
C       -0.25330000       3.10810000       1.13260000
N        0.64270000       4.01580000       0.74180000
N        0.42590000       5.30970000       0.89990000
N       -0.69670000       5.73960000       1.45680000
C       -1.62970000       4.87420000       1.84510000
C       -1.47470000       3.49750000       1.70010000
O       -2.42650000       2.64630000       2.08840000
H        0.54650000       1.29690000       1.92260000
H        0.93370000       1.58970000       0.22580000
H       -2.53100000       5.28750000       2.28830000
