20
Properties=species:S:1:pos:R:3 gdb_102180=T pbc="F F F"
C        0.31710000      -0.42860000       1.58180000
C       -0.05540000      -0.12340000       0.12760000
C       -1.41900000      -0.69160000      -0.30020000
C       -1.82130000      -0.22930000      -1.72450000
C       -1.97370000       1.21900000      -1.83260000
N       -2.09020000       2.36720000      -1.89750000
C       -1.43480000      -2.20690000      -0.27540000
C       -2.07660000      -2.97930000       0.79530000
O       -2.70720000      -2.82660000      -0.47770000
H        1.27690000       0.02850000       1.83900000
H       -0.43470000      -0.03170000       2.27270000
H        0.40240000      -1.50430000       1.76420000
H       -0.06850000       0.96150000      -0.02410000
H        0.72080000      -0.51570000      -0.54420000
H       -2.19080000      -0.33380000       0.39230000
H       -1.06950000      -0.55570000      -2.45390000
H       -2.76690000      -0.70600000      -2.00220000
H       -0.62090000      -2.68400000      -0.82760000
H       -1.72600000      -3.98410000       1.02570000
H       -2.55580000      -2.45360000       1.61980000
