20
Properties=species:S:1:pos:R:3 gdb_95541=T pbc="F F F"
C       -0.20920000       1.53600000       0.09950000
N       -0.07000000       0.08860000       0.07260000
C       -1.33560000      -0.58980000      -0.18680000
C       -1.10610000      -2.07880000      -0.44800000
C       -0.23480000      -2.66570000       0.62610000
C        0.51970000      -1.90250000       1.41240000
C        0.64030000      -0.40690000       1.24290000
C        2.13820000      -0.12230000       1.06840000
O        2.89090000       0.14950000       1.96530000
H        0.77050000       2.00700000       0.23190000
H       -0.62410000       1.88580000      -0.85060000
H       -0.86530000       1.89390000       0.91500000
H       -2.04560000      -0.47100000       0.65430000
H       -1.79660000      -0.11770000      -1.06080000
H       -2.07020000      -2.60020000      -0.48160000
H       -0.64270000      -2.22130000      -1.43350000
H       -0.25610000      -3.74220000       0.77380000
H        1.11860000      -2.32630000       2.21280000
H        0.32820000       0.08880000       2.18220000
H        2.47250000      -0.22760000       0.01230000
