17
Properties=species:S:1:pos:R:3 gdb_47233=T pbc="F F F"
O        0.05460000      -0.00120000      -0.48760000
C       -0.00240000       1.13770000      -0.05170000
N       -1.19810000       1.76120000       0.15640000
C       -1.46910000       3.15590000       0.51970000
C       -0.82560000       4.15710000      -0.41610000
C        0.48280000       4.20840000      -0.66750000
C        1.51480000       3.32620000      -0.06740000
N        1.32970000       2.87030000       1.32020000
C        1.27870000       1.86950000       0.25030000
H       -1.97750000       1.19830000      -0.15000000
H       -2.55480000       3.27210000       0.49010000
H       -1.14790000       3.34020000       1.54780000
H       -1.48460000       4.85760000      -0.92060000
H        0.85590000       4.93750000      -1.38180000
H        2.53270000       3.55030000      -0.37670000
H        2.22160000       2.82030000       1.80370000
H        2.12570000       1.20300000       0.11690000
