20
Properties=species:S:1:pos:R:3 gdb_30862=T pbc="F F F"
C        0.31400000       0.96070000      -0.40850000
O       -0.26480000       0.24220000       0.68090000
C       -1.31880000      -0.54820000       0.34600000
C       -1.37000000      -1.86830000      -0.03160000
C       -0.19720000      -2.78170000      -0.21450000
C       -2.75950000      -2.17280000      -0.19640000
C       -3.49970000      -1.04810000       0.08290000
C       -4.97430000      -0.81800000       0.08370000
N       -2.60390000      -0.04990000       0.40410000
H        1.14570000       1.53740000       0.00240000
H        0.68760000       0.27650000      -1.17950000
H       -0.41160000       1.64600000      -0.86570000
H       -0.31040000      -3.70400000       0.36700000
H       -0.06100000      -3.07990000      -1.26160000
H        0.72430000      -2.29400000       0.11660000
H       -3.16980000      -3.12850000      -0.49010000
H       -5.34900000      -0.51500000       1.07010000
H       -5.27680000      -0.04120000      -0.63050000
H       -5.49110000      -1.73960000      -0.19430000
H       -2.83610000       0.86960000       0.73830000
