15
Properties=species:S:1:pos:R:3 gdb_31863=T pbc="F F F"
C       -0.07770000       1.38510000       0.02270000
O        0.00790000      -0.03850000      -0.01890000
C        0.63690000      -0.57920000      -1.08160000
N        1.14540000       0.19190000      -2.03340000
C        1.75340000      -0.41390000      -3.05440000
C        1.84690000      -1.80360000      -3.11220000
O        2.46790000      -2.39400000      -4.15720000
N        1.33720000      -2.57910000      -2.15810000
C        0.73180000      -1.97660000      -1.14140000
H        0.91720000       1.84010000       0.03620000
H       -0.62450000       1.77310000      -0.84180000
H       -0.61260000       1.61770000       0.94420000
H        2.17390000       0.20620000      -3.83990000
H        2.41970000      -3.34650000      -3.99970000
H        0.31040000      -2.59400000      -0.35430000
