15
Properties=species:S:1:pos:R:3 gdb_16514=T pbc="F F F"
N        0.01720000       1.38190000       0.11920000
C       -0.03200000      -0.03190000      -0.08180000
C        0.83610000      -0.77960000      -1.13180000
N        0.48630000      -2.19060000      -0.85390000
C       -0.61590000      -2.12220000      -0.21920000
N       -0.55430000      -2.38580000       1.23150000
C       -0.64480000      -0.82810000       1.18670000
C       -1.34350000      -0.73990000      -0.11010000
H        0.95470000       1.67930000       0.37240000
H       -0.24060000       1.87870000      -0.72880000
H        0.61290000      -0.40750000      -2.14480000
H        1.91730000      -0.68870000      -0.97450000
H       -1.48550000      -2.63530000       1.58460000
H       -0.81090000      -0.29090000       2.11400000
H       -2.33200000      -0.42040000      -0.41430000
