17
Properties=species:S:1:pos:R:3 gdb_133805=T pbc="F F F"
O       -0.13400000       0.91890000       0.75410000
C        0.01120000       0.10220000      -0.40430000
C       -1.33920000      -0.53550000      -0.68010000
N       -2.32590000       0.50860000      -0.94160000
C       -3.69960000       0.06280000      -1.02640000
C       -4.07150000      -0.37320000      -2.43770000
F       -3.30530000      -1.39250000      -2.86880000
F       -5.34820000      -0.79420000      -2.46970000
F       -3.94920000       0.61980000      -3.32280000
H        0.64500000       1.47600000       0.83440000
H        0.31350000       0.70200000      -1.27440000
H        0.76400000      -0.68420000      -0.24600000
H       -1.25400000      -1.19100000      -1.55150000
H       -1.61680000      -1.16930000       0.18260000
H       -2.23040000       1.21220000      -0.21960000
H       -3.94540000      -0.78060000      -0.35820000
H       -4.37150000       0.88910000      -0.77770000
