20
Properties=species:S:1:pos:R:3 gdb_38137=T pbc="F F F"
C        0.42410000       1.60370000       0.43190000
C        1.47950000       1.54010000      -0.70590000
C        1.35350000      -0.01190000      -0.71140000
C        2.46180000      -0.75570000       0.00250000
N        2.85760000      -0.27260000       1.33460000
C        2.15160000      -1.58070000       1.20570000
C        0.75960000      -1.63020000       1.71350000
C       -0.20440000      -0.84820000       1.22120000
C        0.02720000       0.12250000       0.11100000
H        0.89760000       1.67690000       1.41160000
H       -0.36600000       2.35430000       0.34750000
H        1.12580000       1.98620000      -1.63950000
H        2.46780000       1.94300000      -0.47440000
H        1.22120000      -0.46940000      -1.69640000
H        3.25890000      -1.11800000      -0.64460000
H        3.85180000      -0.43530000       1.47710000
H        2.75180000      -2.47170000       1.37210000
H        0.54720000      -2.32820000       2.51850000
H       -1.20980000      -0.91080000       1.63150000
H       -0.83360000       0.11900000      -0.56720000
