14
Properties=species:S:1:pos:R:3 gdb_27386=T pbc="F F F"
N        0.14680000       1.34370000       0.18060000
C       -0.02980000      -0.01200000       0.05240000
C       -1.18270000      -0.70660000       0.02410000
C       -1.16270000      -2.16690000      -0.02260000
O       -2.16650000      -2.84900000      -0.03920000
N        0.12100000      -2.76360000      -0.04880000
C        1.15350000      -2.01710000      -0.04600000
N        2.42490000      -2.49510000      -0.14190000
O        1.18050000      -0.64380000       0.00970000
H        0.99780000       1.70350000      -0.22700000
H       -0.66880000       1.90010000      -0.02510000
H       -2.13750000      -0.19890000       0.04590000
H        2.51560000      -3.48580000       0.01410000
H        3.17290000      -1.90740000       0.18810000
