19
Properties=species:S:1:pos:R:3 gdb_126421=T pbc="F F F"
C       -0.01160000       1.69980000       0.18870000
C        0.23440000       0.20410000      -0.07140000
C        0.65440000      -0.54600000       1.15730000
N        1.91260000      -0.96160000       1.30250000
N        1.93770000      -1.55730000       2.51170000
C        0.73480000      -1.55350000       3.13930000
C        0.57030000      -2.16420000       4.49700000
O        1.36880000      -3.33130000       4.66220000
C       -0.12980000      -0.89990000       2.28490000
H        0.89660000       2.18260000       0.56180000
H       -0.31770000       2.21050000      -0.72980000
H       -0.79860000       1.84850000       0.93520000
H       -0.67820000      -0.24610000      -0.48140000
H        1.01690000       0.08300000      -0.82650000
H        2.77840000      -2.00240000       2.84000000
H        0.91250000      -1.47580000       5.27870000
H       -0.49490000      -2.35870000       4.68410000
H        1.06360000      -3.98430000       4.02270000
H       -1.17840000      -0.70720000       2.44990000
