17
Properties=species:S:1:pos:R:3 gdb_99063=T pbc="F F F"
C       -0.60860000       1.35830000      -0.56030000
N       -0.95440000      -0.04790000      -0.47330000
C       -0.92270000      -0.73050000       0.70180000
O       -0.61140000      -0.23720000       1.77080000
C       -1.28790000      -2.22160000       0.61850000
C       -2.37740000      -2.60010000      -0.40280000
O       -1.98190000      -2.39900000      -1.75830000
C       -2.81100000      -3.99520000      -0.20100000
N       -3.11430000      -5.10040000      -0.05450000
H        0.29730000       1.51100000      -1.15790000
H       -1.42350000       1.93550000      -1.00970000
H       -0.42860000       1.71790000       0.45300000
H       -1.19830000      -0.55770000      -1.31020000
H       -0.37980000      -2.79780000       0.39980000
H       -1.60860000      -2.51150000       1.62130000
H       -3.24890000      -1.95150000      -0.26440000
H       -1.29400000      -3.04150000      -1.97150000
