19
Properties=species:S:1:pos:R:3 gdb_110271=T pbc="F F F"
C       -0.00560000       1.57590000      -0.05650000
C        0.12180000       0.06560000      -0.04710000
C        0.65260000      -0.78010000      -1.14880000
C        1.42070000      -0.69300000       0.22040000
C        2.56280000      -0.11050000      -0.53620000
O        3.73930000       0.01210000      -0.29440000
C        1.81320000      -0.09360000      -1.88930000
C        2.59920000      -0.94700000      -2.89400000
O        3.81880000      -0.32580000      -3.23270000
H        0.83160000       2.06680000      -0.55690000
H       -0.92680000       1.87990000      -0.56510000
H       -0.04750000       1.95840000       0.96810000
H       -0.69690000      -0.42020000       0.48170000
H        0.13350000      -1.65740000      -1.51470000
H        1.50060000      -1.40510000       1.03280000
H        1.60050000       0.88220000      -2.33370000
H        2.75240000      -1.95710000      -2.47710000
H        2.02880000      -1.06160000      -3.82220000
H        4.28240000      -0.16050000      -2.39950000
