11
Properties=species:S:1:pos:R:3 gdb_133471=T pbc="F F F"
F       -0.57460000       0.27250000      -0.37410000
C        0.00610000       1.40180000       0.04500000
F        1.30070000       1.13390000       0.24610000
F       -0.07820000       2.30210000      -0.95080000
C       -0.64900000       1.94420000       1.27240000
C       -1.26290000       3.16030000       1.44060000
N       -1.67170000       3.12470000       2.72650000
N       -1.33570000       1.96240000       3.32450000
N       -0.71400000       1.24550000       2.43960000
H       -1.42950000       3.99600000       0.78380000
H       -2.16800000       3.82540000       3.25460000
