20
Properties=species:S:1:pos:R:3 gdb_77368=T pbc="F F F"
C       -0.10380000       1.44700000      -0.01850000
C        0.07880000      -0.03580000       0.07410000
C        0.84360000      -0.84120000      -0.92570000
C        1.12720000      -2.21680000      -0.35500000
C       -0.28130000      -2.07730000       0.25850000
C       -1.18380000      -3.25310000       0.49260000
C       -0.15260000      -0.91680000       1.27840000
O        0.86360000      -0.92980000       2.25620000
N       -0.65070000      -1.00790000      -0.83000000
H        0.70380000       1.96910000       0.50590000
H       -0.09980000       1.77410000      -1.06270000
H       -1.05550000       1.75520000       0.42730000
H        1.29310000      -0.37120000      -1.79390000
H        1.14260000      -2.97730000      -1.14080000
H        1.97090000      -2.34870000       0.32750000
H       -0.78500000      -3.88950000       1.29210000
H       -2.18780000      -2.92620000       0.78350000
H       -1.27600000      -3.86510000      -0.41010000
H       -1.13540000      -0.69420000       1.71850000
H        0.53510000      -1.38790000       3.03590000
