19
Properties=species:S:1:pos:R:3 gdb_85311=T pbc="F F F"
C        0.10360000       1.56960000       0.00770000
C        0.07390000       0.04270000      -0.00940000
C        0.79270000      -0.61340000      -1.20480000
C        1.16430000      -2.01840000      -0.72230000
O        1.31690000      -2.99500000      -1.40950000
C        1.29590000      -1.97800000       0.80010000
C        2.65350000      -1.40120000       1.27170000
O        2.07960000      -0.09310000       1.46000000
C        0.74050000      -0.59830000       1.21850000
H        1.13490000       1.92620000       0.08270000
H       -0.34080000       1.98340000      -0.90260000
H       -0.45360000       1.96640000       0.86300000
H       -0.97040000      -0.30160000      -0.00640000
H        0.20920000      -0.65500000      -2.12640000
H        1.72510000      -0.07740000      -1.42950000
H        0.95300000      -2.89640000       1.27400000
H        3.00810000      -1.83230000       2.21590000
H        3.47560000      -1.39990000       0.54660000
H        0.12770000      -0.53980000       2.12500000
