18
Properties=species:S:1:pos:R:3 gdb_19820=T pbc="F F F"
C       -0.22210000       1.58920000      -0.02250000
C        0.04450000       0.09030000       0.00450000
C        1.16400000      -0.50460000      -0.91920000
C        1.78450000      -1.24290000       0.30400000
C        2.90610000      -0.49470000       1.06750000
O        2.66330000       0.91000000       0.94100000
C        1.91940000       0.18510000       1.92980000
C        0.74230000      -0.55450000       1.24470000
H        0.69890000       2.15570000       0.13070000
H       -0.65170000       1.88910000      -0.98510000
H       -0.93580000       1.87540000       0.75880000
H       -0.89480000      -0.44510000      -0.17390000
H        0.79500000      -1.16790000      -1.70480000
H        1.82240000       0.24400000      -1.36400000
H        1.88180000      -2.32750000       0.26850000
H        3.93230000      -0.79530000       1.24970000
H        1.99060000       0.55080000       2.94860000
H        0.13330000      -1.13790000       1.93700000
