23
Properties=species:S:1:pos:R:3 gdb_91088=T pbc="F F F"
C        0.39560000       1.58050000      -0.28000000
C        0.09860000       0.11030000      -0.01420000
C        0.66160000      -0.94240000      -1.01910000
C        1.35300000      -1.70680000       0.15210000
C        2.87240000      -1.71030000       0.26060000
C        3.63950000      -0.46470000      -0.11810000
C        3.29150000      -0.71290000       1.32500000
C        2.04710000      -0.02950000       1.89530000
C        0.82200000      -0.63640000       1.16320000
H        1.46370000       1.77340000      -0.42580000
H       -0.12250000       1.91710000      -1.18520000
H        0.05850000       2.21350000       0.54900000
H       -0.98520000      -0.00150000       0.09450000
H       -0.09980000      -1.51440000      -1.55540000
H        1.35740000      -0.53540000      -1.75810000
H        0.96430000      -2.71700000       0.30210000
H        3.38860000      -2.65920000       0.16160000
H        4.67550000      -0.59280000      -0.41440000
H        3.13310000       0.33130000      -0.65400000
H        4.10220000      -0.93950000       2.00950000
H        1.98010000      -0.23720000       2.96820000
H        2.09530000       1.06070000       1.79670000
H        0.10520000      -1.01990000       1.89340000
