21
Properties=species:S:1:pos:R:3 gdb_40928=T pbc="F F F"
C        0.17950000       1.59570000      -0.36590000
C        1.58800000       1.47070000       0.29120000
C        1.25290000       0.02130000       0.75400000
C       -0.10890000       0.11390000      -0.02710000
C        0.44780000      -0.91100000      -1.05570000
C        1.72830000      -1.10060000      -0.19720000
C        3.15620000      -1.16460000      -0.77190000
O        3.40950000      -2.43980000      -0.14790000
C        2.06990000      -2.49250000       0.37830000
H       -0.47170000       2.28930000       0.17260000
H        0.15080000       1.85890000      -1.42770000
H        2.43570000       1.54550000      -0.39630000
H        1.76330000       2.17110000       1.11060000
H        1.33010000      -0.17690000       1.82510000
H       -1.07480000      -0.12680000       0.41840000
H       -0.14580000      -1.82360000      -1.16370000
H        0.61960000      -0.50020000      -2.05650000
H        3.21840000      -1.22360000      -1.86740000
H        3.84990000      -0.39010000      -0.41850000
H        2.05950000      -2.57580000       1.47350000
H        1.49370000      -3.32570000      -0.04840000
