11
Properties=species:S:1:pos:R:3 gdb_21806=T pbc="F F F"
O       -0.21360000       0.03600000       0.27210000
C       -0.03200000       1.18930000      -0.00080000
C        1.36080000       1.77660000      -0.25560000
C        1.36040000       2.82790000      -1.30730000
N        1.95970000       2.74550000      -2.46140000
O        1.66960000       3.91200000      -3.08090000
N        0.86930000       4.68190000      -2.24400000
N        0.68550000       4.03250000      -1.18390000
H       -0.86470000       1.92180000      -0.06150000
H        1.68800000       2.22500000       0.69240000
H        2.04980000       0.97080000      -0.51130000
