19
Properties=species:S:1:pos:R:3 gdb_83688=T pbc="F F F"
C       -0.65250000       1.31410000       0.24030000
C       -0.06070000      -0.06980000       0.00340000
C        0.75060000      -0.34290000      -1.30160000
C        1.76420000       0.73700000      -1.72210000
O        2.78550000       0.19210000      -0.84630000
C        1.92980000      -0.90170000      -0.46100000
C        1.15370000      -0.60210000       0.85120000
C        1.90430000       0.27850000       1.81860000
O        1.47370000       1.26860000       2.35250000
H        0.10150000       2.10300000       0.22110000
H       -1.40130000       1.53230000      -0.53030000
H       -1.14100000       1.36780000       1.21630000
H       -0.86850000      -0.80590000       0.06500000
H        0.24840000      -0.89110000      -2.09760000
H        2.07660000       0.67570000      -2.77180000
H        1.52410000       1.77820000      -1.48280000
H        2.40820000      -1.87590000      -0.58790000
H        0.90710000      -1.52110000       1.40020000
H        2.93450000      -0.08570000       2.03610000
