13
Properties=species:S:1:pos:R:3 gdb_133245=T pbc="F F F"
C       -0.03180000       1.44600000      -0.01560000
N       -0.00750000      -0.01430000      -0.01420000
N       -0.04680000      -0.62180000      -1.18770000
C       -0.02540000      -1.92610000      -1.19340000
C        0.03810000      -2.61880000       0.05010000
F        0.05760000      -3.93970000      -0.00680000
N        0.07740000      -2.05910000       1.20120000
C        0.05690000      -0.67300000       1.24970000
O        0.08880000      -0.01180000       2.26000000
H        0.86810000       1.83050000       0.46990000
H       -0.08340000       1.77180000      -1.05280000
H       -0.89710000       1.80100000       0.54880000
H       -0.05700000      -2.43460000      -2.14750000
