20
Properties=species:S:1:pos:R:3 gdb_70692=T pbc="F F F"
C        0.07700000       1.54060000       0.03190000
C        0.00110000       0.03090000      -0.02040000
C       -0.87520000      -0.70780000       0.95440000
N        0.55880000      -0.69400000       1.14440000
C        1.29140000      -1.96150000       0.95200000
C        1.75320000      -2.21430000      -0.48420000
C        0.58750000      -2.01730000      -1.46670000
C        0.12040000      -0.57070000      -1.39500000
O       -0.07640000       0.09710000      -2.38690000
H        1.04250000       1.89480000      -0.34230000
H       -0.70220000       1.98120000      -0.59460000
H       -0.04270000       1.88580000       1.06110000
H       -1.46190000      -0.12640000       1.66250000
H       -1.34990000      -1.63220000       0.62790000
H        2.15880000      -1.94110000       1.62100000
H        0.65470000      -2.79140000       1.28460000
H        2.56160000      -1.51860000      -0.74080000
H        2.16970000      -3.22400000      -0.56650000
H        0.86800000      -2.22250000      -2.50230000
H       -0.23710000      -2.69420000      -1.20700000
