22
Properties=species:S:1:pos:R:3 gdb_106669=T pbc="F F F"
C       -0.18650000       1.56170000       0.13970000
C       -0.08720000       0.04560000       0.04890000
C        0.75250000      -0.58360000      -1.12470000
C        1.62130000      -1.28560000      -0.07410000
C        2.29730000      -2.62070000      -0.22680000
O        2.97500000      -3.03670000       0.95620000
N        2.21790000      -0.19580000       0.74100000
C        0.83850000      -0.68700000       1.04390000
C        0.47400000      -1.20080000       2.40350000
H        0.81250000       2.00480000       0.16490000
H       -0.72630000       1.97340000      -0.72030000
H       -0.72180000       1.87100000       1.04470000
H       -1.08480000      -0.40650000       0.07210000
H        0.16810000      -1.27000000      -1.74340000
H        1.28850000       0.12120000      -1.76660000
H        1.54730000      -3.39080000      -0.44470000
H        2.98500000      -2.59450000      -1.08610000
H        3.87190000      -2.69250000       0.92110000
H        2.81720000      -0.66020000       1.42570000
H        0.39860000      -0.38330000       3.13100000
H       -0.49530000      -1.71130000       2.37940000
H        1.22170000      -1.91480000       2.76040000
