16
Properties=species:S:1:pos:R:3 gdb_50500=T pbc="F F F"
O        0.16190000      -0.07160000      -0.15050000
C        0.18160000       1.12770000      -0.08770000
C        1.41840000       1.96890000       0.14580000
C        1.63130000       3.00290000      -1.00020000
O        1.55810000       4.30520000      -0.41610000
C        1.90120000       4.19420000       0.94780000
C        1.26710000       2.86340000       1.40100000
C        3.36960000       4.19680000       1.14400000
N        4.51590000       4.18720000       1.28880000
H       -0.75030000       1.73200000      -0.20750000
H        2.27520000       1.29930000       0.23410000
H        2.60770000       2.84650000      -1.47270000
H        0.85940000       2.95870000      -1.77480000
H        1.48460000       5.06210000       1.46640000
H        0.21110000       3.05080000       1.62040000
H        1.73530000       2.43310000       2.28670000
