14
Properties=species:S:1:pos:R:3 gdb_80209=T pbc="F F F"
N        0.09250000       1.42550000       0.09420000
C       -0.03840000       0.02170000       0.06480000
C       -0.54390000      -0.74940000       1.21070000
O       -1.57750000      -0.00230000       1.89010000
C       -2.42960000      -0.12750000       0.78150000
N       -3.62050000       0.21060000       0.62780000
C       -1.40490000      -0.81340000      -0.05880000
C       -1.58590000      -1.82360000      -1.03580000
N       -1.70020000      -2.64120000      -1.84770000
H       -0.06420000       1.85170000      -0.81140000
H       -0.52480000       1.84700000       0.77870000
H        0.72640000      -0.49190000      -0.51300000
H       -0.05800000      -1.53940000       1.76830000
H       -4.00690000       0.65090000       1.46340000
