17
Properties=species:S:1:pos:R:3 gdb_94255=T pbc="F F F"
O        0.54770000       0.91640000      -0.57800000
C        0.16880000      -0.17320000       0.19240000
C       -0.07290000      -0.02220000       1.71790000
C       -1.24820000      -1.02140000       1.60660000
C       -1.29590000      -0.77000000       0.04180000
C       -2.33950000       0.29630000      -0.23980000
O       -2.14420000       1.48600000      -0.14730000
C       -1.49920000      -1.91880000      -0.81320000
C       -1.66950000      -2.86820000      -1.53220000
H       -0.13580000       1.59090000      -0.45830000
H        0.88420000      -0.97410000      -0.01160000
H        0.75150000      -0.28460000       2.38290000
H       -0.42000000       0.98560000       1.95810000
H       -0.95970000      -2.05540000       1.80170000
H       -2.16320000      -0.79800000       2.15890000
H       -3.33910000      -0.09770000      -0.51750000
H       -1.80930000      -3.70850000      -2.16640000
