19
Properties=species:S:1:pos:R:3 gdb_95669=T pbc="F F F"
C       -0.06280000       1.44110000      -0.53170000
N       -0.03270000       0.21050000       0.23830000
C       -1.30550000      -0.47850000       0.36470000
C       -1.38000000      -1.39870000       1.58810000
N       -0.69960000      -2.65920000       1.40060000
C        0.66440000      -2.82370000       1.24850000
O        1.16650000      -3.92780000       1.41350000
C        1.47860000      -1.66110000       0.87490000
C        1.16350000      -0.41950000       0.43370000
H        0.90500000       1.94280000      -0.46800000
H       -0.28990000       1.26670000      -1.59460000
H       -0.82590000       2.11710000      -0.13040000
H       -2.07860000       0.29280000       0.45750000
H       -1.53310000      -1.06810000      -0.53670000
H       -1.01190000      -0.84910000       2.46690000
H       -2.43480000      -1.62370000       1.76720000
H       -1.15140000      -3.49510000       1.73930000
H        2.53720000      -1.88250000       0.93200000
H        2.00270000       0.22990000       0.19710000
