18
Properties=species:S:1:pos:R:3 gdb_24621=T pbc="F F F"
C       -0.00280000       1.47550000      -0.19010000
O        1.38940000       1.58190000       0.16560000
C        1.45900000       0.19130000       0.53670000
C        0.01270000      -0.05640000       0.03980000
N       -0.94360000      -0.63010000       0.94960000
C       -1.20610000      -0.20240000       2.23320000
C       -2.18140000      -1.01110000       2.76610000
C       -2.52910000      -1.96880000       1.77350000
C       -1.75250000      -1.70890000       0.67050000
H       -0.65630000       2.02240000       0.50060000
H       -0.19620000       1.81200000      -1.21490000
H        2.25470000      -0.34110000       0.00350000
H        1.58860000       0.05030000       1.61660000
H       -0.03030000      -0.62950000      -0.88640000
H       -0.67830000       0.63760000       2.65590000
H       -2.59840000      -0.92450000       3.75780000
H       -3.26260000      -2.75560000       1.85870000
H       -1.69910000      -2.19290000      -0.29210000
