19
Properties=species:S:1:pos:R:3 gdb_83826=T pbc="F F F"
O       -0.16160000       1.44470000       0.09390000
C       -0.00710000       0.06360000       0.00120000
C       -1.23810000      -0.83620000      -0.02360000
C       -2.62010000      -0.21230000       0.08830000
C       -3.55580000      -0.50430000      -1.06410000
C       -3.26520000      -0.52100000      -2.36460000
C       -1.95170000      -0.24290000      -3.04340000
O       -0.92370000       0.29360000      -2.22060000
C       -0.42070000      -0.60450000      -1.27730000
H       -0.42230000       1.74810000      -0.78620000
H        0.88090000      -0.28980000       0.51700000
H       -1.12320000      -1.81580000       0.43190000
H       -3.08360000      -0.55920000       1.01740000
H       -2.50580000       0.87250000       0.20890000
H       -4.58910000      -0.70320000      -0.78690000
H       -4.06200000      -0.75460000      -3.07010000
H       -1.58590000      -1.15870000      -3.53970000
H       -2.10390000       0.49780000      -3.83840000
H        0.17330000      -1.41590000      -1.69850000
