21
Properties=species:S:1:pos:R:3 gdb_68302=T pbc="F F F"
C       -0.16380000       1.45230000       0.00970000
C       -0.05910000      -0.03820000      -0.07100000
C        0.67400000      -0.93480000      -1.10390000
C        0.22040000      -1.80820000       0.08400000
O        0.69520000      -0.74980000       1.00540000
C       -1.17580000      -1.12990000       0.04910000
C       -2.03400000      -1.15810000       1.27710000
C       -3.44580000      -0.62180000       1.22620000
C       -3.20850000      -2.10410000       1.35700000
H        0.83160000       1.90610000       0.03500000
H       -0.70000000       1.84150000      -0.86160000
H       -0.70680000       1.75170000       0.91110000
H        0.20300000      -1.09300000      -2.07810000
H        1.75050000      -0.77170000      -1.16780000
H        0.48440000      -2.83700000       0.32980000
H       -1.75720000      -1.30130000      -0.86470000
H       -1.48370000      -0.99060000       2.19610000
H       -3.82090000      -0.07930000       2.08710000
H       -3.81550000      -0.25170000       0.27500000
H       -3.41840000      -2.72770000       0.49360000
H       -3.41950000      -2.58050000       2.30800000
