20
Properties=species:S:1:pos:R:3 gdb_74474=T pbc="F F F"
C       -0.01950000       1.49580000       0.07230000
C       -0.01510000       0.00220000       0.00270000
C       -0.00200000      -0.76670000      -1.09440000
C       -0.01210000      -2.22010000      -0.75980000
C       -0.72180000      -3.21840000      -1.60550000
N        0.74890000      -3.21300000      -1.55150000
C        0.04550000      -2.28570000       0.74960000
C        1.26110000      -1.69310000       1.41460000
C        0.01160000      -0.85050000       1.23710000
H        0.85690000       1.86880000       0.61740000
H       -0.02260000       1.94740000      -0.92340000
H       -0.90060000       1.86280000       0.61400000
H        0.04470000      -0.40600000      -2.11730000
H       -1.18970000      -4.08130000      -1.13670000
H       -1.22200000      -2.86660000      -2.50500000
H        1.12420000      -2.76850000      -2.38680000
H       -0.49360000      -3.07400000       1.26100000
H        1.49020000      -2.04410000       2.41540000
H        2.12620000      -1.46080000       0.80240000
H       -0.54770000      -0.54580000       2.11550000
