19
Properties=species:S:1:pos:R:3 gdb_105839=T pbc="F F F"
C       -0.18360000       1.55020000      -0.12040000
C        0.09260000       0.04790000       0.04440000
C        0.79650000      -0.53320000      -1.15330000
C        0.06740000      -1.06410000      -2.38250000
O        0.34900000      -0.65960000      -3.68950000
C        0.98280000      -2.00350000      -1.70340000
C        2.43390000      -1.70650000      -2.11350000
C        2.23810000      -0.29970000      -1.50670000
O        3.00050000       0.58180000      -1.21690000
H        0.75150000       2.09250000      -0.28380000
H       -0.84090000       1.73940000      -0.97630000
H       -0.66850000       1.95950000       0.77080000
H        0.70870000      -0.11130000       0.93780000
H       -0.84680000      -0.49270000       0.21420000
H       -0.99330000      -1.22970000      -2.18250000
H        0.07070000       0.25680000      -3.79020000
H        0.64500000      -2.91830000      -1.23340000
H        3.18000000      -2.26600000      -1.54270000
H        2.65900000      -1.76410000      -3.17950000
