16
Properties=species:S:1:pos:R:3 gdb_39002=T pbc="F F F"
C       -0.13640000       1.50440000      -0.05630000
C        1.42550000       1.75200000       0.05550000
C        2.16490000       1.92300000       1.42380000
N        2.37040000       0.55240000       1.96950000
C        2.05240000      -0.26510000       1.05590000
C        1.27150000      -1.57730000       1.10430000
N       -0.06730000      -1.01350000       0.67900000
C        0.25450000       0.02950000       0.01540000
N        1.64230000       0.29790000      -0.20800000
H       -0.77910000       1.83370000       0.76160000
H       -0.54010000       1.85070000      -1.00950000
H        1.82480000       2.40720000      -0.71830000
H        3.12250000       2.43430000       1.27440000
H        1.60110000       2.49980000       2.16420000
H        1.65110000      -2.33460000       0.41190000
H        1.18620000      -1.99100000       2.10810000
