20
Properties=species:S:1:pos:R:3 gdb_78170=T pbc="F F F"
C       -0.03360000       1.48060000       0.07030000
C        0.07350000      -0.02770000       0.04910000
C        0.66000000      -0.71340000      -1.15150000
C        1.44630000      -0.67180000       0.14330000
C        1.45440000      -2.07860000       0.67870000
O        2.05210000      -2.50350000       1.64320000
N        0.62820000      -2.81270000      -0.14550000
C        0.27450000      -2.17320000      -1.40890000
C       -1.18580000      -2.39580000      -1.80460000
H        0.79980000       1.94490000      -0.46730000
H       -0.96300000       1.81540000      -0.40320000
H       -0.02240000       1.86310000       1.09620000
H       -0.72510000      -0.54850000       0.57160000
H        0.94610000      -0.11080000      -2.00580000
H        2.32200000      -0.05800000       0.30930000
H        0.54730000      -3.80730000      -0.00330000
H        0.91370000      -2.56100000      -2.21790000
H       -1.86420000      -2.00120000      -1.04330000
H       -1.40000000      -1.89660000      -2.75490000
H       -1.39920000      -3.46220000      -1.93390000
