17
Properties=species:S:1:pos:R:3 gdb_68804=T pbc="F F F"
C       -0.03210000       1.55060000       0.09530000
C        0.02950000       0.05760000       0.09020000
C        1.20790000      -0.77740000      -0.35330000
C        0.63270000      -0.97340000       1.02710000
O        1.33920000      -0.82630000       2.19730000
C       -0.70720000      -1.73250000       0.93870000
N       -1.18510000      -0.77670000      -0.12170000
C       -0.68140000      -3.14160000       0.54420000
N       -0.62150000      -4.25730000       0.24790000
H        0.93730000       1.97430000       0.37110000
H       -0.29850000       1.93250000      -0.89670000
H       -0.77620000       1.91630000       0.81220000
H        1.09010000      -1.52590000      -1.13230000
H        2.15700000      -0.24980000      -0.34480000
H        2.08160000      -1.44190000       2.19210000
H       -1.25580000      -1.62970000       1.87990000
H       -2.01550000      -0.29520000       0.21320000
