16
Properties=species:S:1:pos:R:3 gdb_11808=T pbc="F F F"
O        0.52530000       0.81520000      -0.72950000
C        0.14960000      -0.34050000      -0.04440000
C        0.08020000      -0.32710000       1.49750000
O        0.63710000       0.33720000       2.32350000
C       -1.19310000      -1.19800000       1.49830000
C       -1.33010000      -0.80540000       0.01720000
C       -2.45470000      -0.01820000      -0.58580000
C       -2.14220000      -1.41640000      -1.07750000
H        0.31260000       1.57420000      -0.17450000
H        0.79060000      -1.15820000      -0.39960000
H       -0.97430000      -2.25990000       1.65600000
H       -1.97490000      -0.88550000       2.19460000
H       -3.35570000       0.13040000       0.00040000
H       -2.18520000       0.81290000      -1.22970000
H       -1.68200000      -1.52030000      -2.05530000
H       -2.83260000      -2.21320000      -0.81980000
