21
Properties=species:S:1:pos:R:3 gdb_103793=T pbc="F F F"
C       -0.13700000       1.46170000       0.16280000
C        0.03840000      -0.02090000      -0.11650000
O        1.12160000      -0.48830000      -0.40520000
C       -1.19840000      -0.85020000      -0.01570000
C       -1.24890000      -2.19510000      -0.72080000
C       -1.20430000      -2.17570000       0.77120000
C        0.03560000      -2.65410000       1.49940000
C       -2.50210000      -2.45870000       1.50070000
O       -2.64580000      -3.86790000       1.61570000
H        0.82450000       1.97080000       0.08910000
H       -0.84190000       1.90010000      -0.55320000
H       -0.56390000       1.61400000       1.16090000
H       -2.12190000      -0.28130000       0.03660000
H       -2.17480000      -2.46590000      -1.21630000
H       -0.33990000      -2.47030000      -1.24440000
H        0.94150000      -2.42460000       0.93860000
H        0.11460000      -2.18450000       2.48740000
H       -0.03140000      -3.73500000       1.64940000
H       -2.47480000      -1.98290000       2.49450000
H       -3.34730000      -2.02040000       0.94610000
H       -3.37600000      -4.04790000       2.21470000
