16
Properties=species:S:1:pos:R:3 gdb_22869=T pbc="F F F"
C       -0.15860000       1.58610000       0.02760000
C        0.03810000       0.06640000       0.03790000
C        0.87890000      -0.42990000      -1.14230000
O        0.75680000      -0.13500000      -2.29380000
O        1.83410000      -1.30250000      -0.71310000
C        1.83400000      -1.45030000       0.71140000
C        0.76990000      -0.50720000       1.21750000
N        0.52170000      -0.20270000       2.42470000
O        1.37520000      -0.89680000       3.29670000
H        0.79820000       2.10410000       0.13650000
H       -0.61110000       1.89000000      -0.91890000
H       -0.80620000       1.88700000       0.85360000
H       -0.94310000      -0.41870000      -0.06250000
H        1.62030000      -2.49340000       0.97020000
H        2.82390000      -1.19900000       1.10460000
H        1.10460000      -0.56800000       4.16070000
