18
Properties=species:S:1:pos:R:3 gdb_97211=T pbc="F F F"
C        0.07070000       1.42960000      -0.03350000
N        0.19440000      -0.01770000      -0.07170000
C        0.60050000      -0.64160000       0.93990000
O        0.99470000      -0.10110000       2.14070000
C        1.21940000      -1.18360000       3.04250000
O        1.47040000      -2.32350000       2.26240000
C        0.74670000      -2.11900000       1.07000000
C       -0.36050000      -3.06260000       0.66120000
C        0.95640000      -3.03380000      -0.08580000
H        0.80880000       1.87420000      -0.71170000
H       -0.91750000       1.71290000      -0.41170000
H        0.20760000       1.86580000       0.96260000
H        2.09630000      -0.96440000       3.65660000
H        0.32440000      -1.31040000       3.67270000
H       -0.54440000      -3.90490000       1.31840000
H       -1.23240000      -2.62780000       0.18620000
H        0.98210000      -2.57190000      -1.06610000
H        1.64040000      -3.86050000       0.06940000
