23
Properties=species:S:1:pos:R:3 gdb_96003=T pbc="F F F"
C       -0.67850000       1.24520000       0.15930000
C        0.03420000      -0.10040000       0.04930000
C        1.13130000      -0.14340000      -1.03490000
O        2.12940000      -1.06310000      -0.59370000
C        1.71630000      -1.64610000       0.63880000
C        0.79770000      -0.60940000       1.30200000
C        1.59150000       0.45580000       2.03520000
C        0.97760000       1.24860000       3.16130000
C        2.03700000       0.21590000       3.45680000
H        0.01790000       2.04690000       0.42090000
H       -1.15370000       1.50970000      -0.79170000
H       -1.46220000       1.22060000       0.92300000
H       -0.71210000      -0.86670000      -0.19690000
H        0.73320000      -0.46120000      -2.00770000
H        1.59840000       0.84230000      -1.17310000
H        1.17570000      -2.59010000       0.45990000
H        2.61240000      -1.86970000       1.22550000
H        0.10950000      -1.08860000       2.00800000
H        2.30220000       0.99090000       1.41060000
H        1.23510000       2.29750000       3.26030000
H       -0.04420000       1.01710000       3.44470000
H        1.72410000      -0.70580000       3.93750000
H        3.02180000       0.55730000       3.75550000
