17
Properties=species:S:1:pos:R:3 gdb_17532=T pbc="F F F"
C       -0.04640000       1.45090000      -0.01710000
C        0.03170000      -0.05420000      -0.08290000
C        0.76370000      -0.71310000      -1.19060000
N        1.35900000      -0.62410000       0.21220000
C        1.15400000      -2.11370000       0.35640000
C        0.62800000      -2.21090000      -1.07830000
C       -0.22730000      -3.16680000      -1.78320000
O        1.18980000      -3.10120000      -2.02030000
H        0.85900000       1.90150000      -0.43250000
H       -0.90950000       1.82040000      -0.58070000
H       -0.14490000       1.78680000       1.02000000
H       -0.83310000      -0.57820000       0.32730000
H        1.18460000      -0.17780000      -2.03590000
H        2.11550000      -2.61920000       0.47160000
H        0.48490000      -2.39430000       1.17660000
H       -0.57110000      -4.06660000      -1.27460000
H       -0.85430000      -2.82920000      -2.60750000
