21
Properties=species:S:1:pos:R:3 gdb_85129=T pbc="F F F"
C       -0.45220000       1.41780000      -0.26560000
C        0.14910000       0.01980000      -0.24300000
C        1.62930000      -0.13440000      -0.72100000
C        1.89760000      -0.94810000       0.55290000
O        2.79840000      -1.64670000       0.92630000
C        0.52620000      -0.60150000       1.13970000
C        0.56750000       0.20080000       2.47950000
C        0.26420000      -1.12370000       3.22660000
C       -0.24310000      -1.72040000       1.88800000
H        0.18210000       2.13250000       0.27040000
H       -0.56420000       1.77890000      -1.29340000
H       -1.44320000       1.43680000       0.20120000
H       -0.49990000      -0.67300000      -0.79010000
H        1.81910000      -0.64650000      -1.66790000
H        2.18480000       0.81080000      -0.72260000
H        1.49220000       0.72930000       2.72400000
H       -0.26840000       0.90440000       2.53700000
H        1.18340000      -1.61490000       3.55310000
H       -0.43620000      -1.08150000       4.06330000
H       -1.32480000      -1.60380000       1.76590000
H        0.03560000      -2.74970000       1.64960000
