17
Properties=species:S:1:pos:R:3 gdb_128798=T pbc="F F F"
C       -0.63460000       1.36570000      -0.64680000
O       -0.62830000      -0.04510000      -0.67140000
C       -0.79650000      -0.60490000       0.60800000
C       -0.71930000      -2.09280000       0.50000000
N       -1.58110000      -2.96530000       0.92420000
C       -0.97420000      -4.16000000       0.58840000
C       -1.57920000      -5.49140000       0.86870000
N        0.18280000      -4.02470000      -0.00580000
O        0.36280000      -2.63640000      -0.06430000
H       -0.49610000       1.70440000      -1.67540000
H       -1.58740000       1.76250000      -0.26380000
H        0.18180000       1.76420000      -0.02470000
H       -0.01210000      -0.24900000       1.29840000
H       -1.77150000      -0.35170000       1.04810000
H       -2.55110000      -5.57720000       0.37380000
H       -0.92350000      -6.28780000       0.51400000
H       -1.74630000      -5.61300000       1.94310000
