17
Properties=species:S:1:pos:R:3 gdb_8048=T pbc="F F F"
C       -0.01880000       1.50910000       0.03420000
C        0.04010000       0.00370000       0.02600000
C        0.52000000      -0.96950000      -1.07520000
N        0.08150000      -1.94990000       0.02630000
C        0.78450000      -0.96350000       0.97910000
C       -1.14730000      -1.00560000       0.16380000
C       -1.92030000      -1.07950000       1.38470000
C       -2.59410000      -1.11340000       2.38060000
H        0.98370000       1.94130000      -0.05450000
H       -0.62300000       1.88450000      -0.79880000
H       -0.46430000       1.87320000       0.96580000
H       -0.06960000      -1.04770000      -1.99380000
H        1.59160000      -1.01470000      -1.28460000
H        1.87480000      -1.00530000       0.90920000
H        0.44530000      -1.03640000       2.01370000
H       -1.80510000      -1.08220000      -0.70840000
H       -3.18510000      -1.15470000       3.26210000
