18
Properties=species:S:1:pos:R:3 gdb_60507=T pbc="F F F"
C        0.76450000       1.44570000      -0.09310000
N        0.04770000       0.18700000       0.07920000
C        0.09580000      -0.41150000       1.38630000
C       -0.53450000       0.33150000       2.53710000
C       -1.17100000      -0.92610000       2.00320000
C       -0.16790000      -0.65260000      -0.98840000
N       -0.37640000      -1.91100000      -0.85640000
C       -0.18980000      -0.01800000      -2.30030000
N       -0.22250000       0.40660000      -3.37590000
H        0.55800000       1.86810000      -1.07760000
H        0.43220000       2.15730000       0.66540000
H        1.85100000       1.31520000       0.00910000
H        1.00420000      -0.97570000       1.59320000
H       -0.02640000       0.30310000       3.49420000
H       -1.03300000       1.26970000       2.32020000
H       -2.07910000      -0.81990000       1.42310000
H       -1.10870000      -1.83940000       2.58240000
H       -0.58700000      -2.33730000      -1.75590000
