21
Properties=species:S:1:pos:R:3 gdb_36949=T pbc="F F F"
C       -0.03590000       1.53820000       0.00900000
C       -0.03920000       0.02950000       0.19050000
C       -1.39670000      -0.70830000       0.18800000
C       -0.80870000      -1.48560000      -1.00620000
O        0.37840000      -0.66730000      -1.01390000
C        1.36930000       2.08240000      -0.18740000
C        1.57330000       3.61390000      -0.17270000
C        2.52650000       3.33080000       1.00520000
O        2.18650000       1.92960000       1.00390000
H       -0.64900000       1.79930000      -0.86370000
H       -0.48620000       2.00880000       0.89290000
H        0.61120000      -0.23900000       1.03310000
H       -1.63150000      -1.29200000       1.07920000
H       -2.24850000      -0.07060000      -0.05930000
H       -0.57610000      -2.53900000      -0.80280000
H       -1.35780000      -1.42350000      -1.95320000
H        1.84030000       1.57940000      -1.04190000
H        2.02160000       4.05060000      -1.06610000
H        0.67690000       4.17890000       0.09320000
H        3.59040000       3.49210000       0.78800000
H        2.28590000       3.81200000       1.96060000
