21
Properties=species:S:1:pos:R:3 gdb_118989=T pbc="F F F"
C        0.12080000       1.40090000      -0.07460000
O        0.05890000      -0.00580000      -0.03270000
C        0.56580000      -0.56020000       1.16820000
C        0.54380000      -2.08090000       1.00680000
O        1.28760000      -2.41430000      -0.16990000
C        1.17270000      -2.81630000       2.21420000
C        0.25110000      -4.02260000       2.52430000
C       -1.00460000      -3.70880000       1.74920000
C       -0.85940000      -2.65790000       0.94670000
H        1.15540000       1.76470000       0.02130000
H       -0.27970000       1.71870000      -1.04030000
H       -0.48020000       1.85650000       0.72710000
H        1.60060000      -0.21970000       1.33800000
H       -0.04730000      -0.24980000       2.02920000
H        0.99050000      -1.79630000      -0.84990000
H        2.19680000      -3.10550000       1.97170000
H        1.21270000      -2.14440000       3.07800000
H        0.68710000      -4.97290000       2.18960000
H        0.06390000      -4.13500000       3.59860000
H       -1.90420000      -4.30990000       1.83520000
H       -1.60760000      -2.25670000       0.27300000
