18
Properties=species:S:1:pos:R:3 gdb_20868=T pbc="F F F"
C       -0.07570000       1.59910000       0.00540000
C       -0.05290000       0.06930000      -0.02070000
C        0.76560000      -0.49770000      -1.19680000
C        0.78450000      -1.99710000      -1.24710000
C        1.77820000      -2.85370000      -0.81360000
N        1.33280000      -4.11540000      -1.03560000
N        0.10860000      -4.15330000      -1.59200000
C       -0.22520000      -2.87220000      -1.71860000
H        0.93640000       2.01010000       0.09470000
H       -0.51530000       2.00510000      -0.91270000
H       -0.66250000       1.97490000       0.84940000
H        0.36200000      -0.31590000       0.91880000
H       -1.07750000      -0.31800000      -0.07940000
H        0.35560000      -0.10230000      -2.13530000
H        1.79300000      -0.11840000      -1.13270000
H        2.74690000      -2.66130000      -0.37870000
H        1.81000000      -4.98050000      -0.84850000
H       -1.18110000      -2.61110000      -2.15090000
