22
Properties=species:S:1:pos:R:3 gdb_5978=T pbc="F F F"
C        0.02590000       1.63990000      -0.06870000
C       -0.03080000       0.11060000       0.00680000
C        0.70330000      -0.55100000      -1.16760000
C        0.72460000      -2.10540000      -1.18170000
C        1.49520000      -2.68790000       0.00840000
C       -0.70620000      -2.68320000      -1.25390000
C        1.41250000      -2.49280000      -2.48640000
O        2.42780000      -3.13120000      -2.58550000
H        1.06060000       1.99970000      -0.05330000
H       -0.43770000       2.00930000      -0.99020000
H       -0.49870000       2.09840000       0.77510000
H        0.40820000      -0.22060000       0.95490000
H       -1.07870000      -0.21010000       0.02260000
H        0.25130000      -0.19730000      -2.10540000
H        1.74180000      -0.19330000      -1.17820000
H        0.98450000      -2.47400000       0.95130000
H        1.59070000      -3.77260000      -0.08890000
H        2.50710000      -2.27650000       0.06040000
H       -1.25660000      -2.28730000      -2.11480000
H       -0.68200000      -3.77430000      -1.34050000
H       -1.27200000      -2.43590000      -0.35190000
H        0.88190000      -2.12160000      -3.39670000
