13
Properties=species:S:1:pos:R:3 gdb_6240=T pbc="F F F"
C        0.38070000       1.03850000      -0.03180000
C       -0.51760000      -0.12780000       0.26350000
N       -1.19260000      -0.40150000       1.28640000
O       -0.69570000      -0.99660000      -0.83000000
C        0.35840000      -1.74200000      -1.23930000
O        1.44410000      -1.74940000      -0.72030000
C       -0.00500000      -2.53790000      -2.38820000
C       -0.25160000      -3.22260000      -3.34380000
H        1.39820000       0.68530000      -0.21560000
H        0.03540000       1.55670000      -0.93230000
H        0.38710000       1.73950000       0.80470000
H       -1.06030000       0.31320000       2.00170000
H       -0.47160000      -3.82880000      -4.18890000
