18
Properties=species:S:1:pos:R:3 gdb_46257=T pbc="F F F"
O        0.00280000       0.01450000      -0.16280000
C       -0.03110000       1.20370000      -0.04040000
C       -1.15650000       2.21420000       0.25700000
C       -0.04430000       3.23900000       0.63670000
C        1.04090000       2.30070000       0.03030000
C        2.46380000       2.13960000       0.65820000
C        3.06880000       2.64040000      -0.65970000
N        2.62800000       1.68390000      -1.70130000
C        1.72120000       2.77190000      -1.27350000
H       -1.71380000       2.48520000      -0.64550000
H       -1.87020000       1.91980000       1.03020000
H       -0.12220000       4.22880000       0.18190000
H        0.06500000       3.35640000       1.71770000
H        2.60780000       2.82750000       1.49510000
H        2.74820000       1.12570000       0.94850000
H        3.95970000       3.24010000      -0.79770000
H        3.04860000       1.97850000      -2.58280000
H        1.32600000       3.49110000      -1.98150000
