17
Properties=species:S:1:pos:R:3 gdb_33421=T pbc="F F F"
C       -0.21990000      -1.18600000       0.18990000
C       -0.09160000       0.00360000       0.08500000
C        0.09880000       1.45310000      -0.03760000
C        1.60660000       1.82320000      -0.17350000
C        2.39770000       1.42130000       1.04510000
C        3.46150000       2.27210000       1.59060000
O        2.17910000       2.21600000       2.21730000
C       -0.67380000       2.00110000      -1.15590000
C       -1.27990000       2.47370000      -2.07860000
H       -0.35130000      -2.23580000       0.28260000
H       -0.25560000       1.92440000       0.89020000
H        2.01320000       1.33630000      -1.06590000
H        1.67550000       2.90530000      -0.31700000
H        2.44480000       0.35040000       1.24260000
H        4.27850000       1.82370000       2.15390000
H        3.70020000       3.21400000       1.09780000
H       -1.82930000       2.88330000      -2.88980000
