20
Properties=species:S:1:pos:R:3 gdb_92964=T pbc="F F F"
C       -0.50500000       1.39660000       0.11290000
C       -0.18830000      -0.10410000       0.13810000
C        0.45770000      -0.55720000      -1.20340000
C        1.93630000      -0.54870000      -0.90160000
C        2.17710000      -0.49460000       0.40530000
C        0.89860000      -0.48490000       1.20930000
C        0.94960000       0.44400000       2.42110000
N        0.00420000       0.18660000       3.37680000
O        1.76340000       1.33910000       2.54050000
H        0.40230000       1.98530000      -0.05100000
H       -1.21090000       1.61870000      -0.69370000
H       -0.95470000       1.73150000       1.05230000
H       -1.11510000      -0.65560000       0.32780000
H        0.12390000      -1.56410000      -1.49260000
H        0.18400000       0.10710000      -2.03180000
H        2.69350000      -0.60630000      -1.67560000
H        3.15030000      -0.48050000       0.87890000
H        0.68830000      -1.50080000       1.57890000
H       -0.72260000      -0.49330000       3.23790000
H       -0.07430000       0.82560000       4.15110000
