22
Properties=species:S:1:pos:R:3 gdb_6985=T pbc="F F F"
C       -0.61590000       1.33040000       0.04700000
C        0.00150000      -0.06480000       0.00870000
C        1.00150000      -0.31310000      -1.13650000
C        1.89250000      -1.50290000      -0.67190000
C        1.47870000      -1.78720000       0.79170000
C        0.76710000      -0.50430000       1.27960000
C        1.77000000       0.53890000       1.78830000
O       -0.20850000      -0.76560000       2.28780000
H        0.14930000       2.11410000       0.06290000
H       -1.24170000       1.50400000      -0.83470000
H       -1.24540000       1.44810000       0.93440000
H       -0.81590000      -0.79290000      -0.08070000
H        0.49060000      -0.51630000      -2.08190000
H        1.61110000       0.58280000      -1.30240000
H        1.75210000      -2.38670000      -1.29990000
H        2.95270000      -1.24170000      -0.74060000
H        0.74800000      -2.60100000       0.83850000
H        2.32450000      -2.07090000       1.42730000
H        2.50910000       0.80400000       1.02550000
H        1.25910000       1.45130000       2.10580000
H        2.32230000       0.14140000       2.64890000
H        0.25540000      -0.96540000       3.10750000
