11
Properties=species:S:1:pos:R:3 gdb_77=T pbc="F F F"
C        0.07300000       1.38840000       0.06440000
O        0.21050000      -0.03740000       0.04610000
C        0.50100000      -0.57220000      -1.15980000
C        0.62220000      -2.07380000      -1.06030000
O        0.63920000       0.08220000      -2.16160000
H        1.00030000       1.87060000      -0.25530000
H       -0.73340000       1.70780000      -0.60080000
H       -0.15750000       1.65150000       1.09690000
H       -0.31330000      -2.50200000      -0.68940000
H        0.85650000      -2.48430000      -2.04160000
H        1.40650000      -2.34060000      -0.34630000
