16
Properties=species:S:1:pos:R:3 gdb_12898=T pbc="F F F"
C        0.00940000       1.56750000      -0.03290000
C       -0.00490000       0.07050000       0.06410000
C       -1.25990000      -0.81680000       0.06080000
N       -0.57570000      -1.83060000       0.93890000
C        0.57880000      -0.92750000       1.04570000
C        1.20660000      -0.77970000      -0.32550000
C        1.15890000      -1.81330000      -1.32430000
N        1.12290000      -2.62490000      -2.14770000
H        0.99680000       1.97110000       0.21230000
H       -0.24220000       1.90030000      -1.04660000
H       -0.71600000       2.01400000       0.65600000
H       -2.09680000      -0.31920000       0.56020000
H       -1.59400000      -1.21910000      -0.90050000
H       -1.05460000      -1.91640000       1.82860000
H        1.16040000      -0.81190000       1.95350000
H        2.13200000      -0.21040000      -0.32540000
