20
Properties=species:S:1:pos:R:3 gdb_105210=T pbc="F F F"
C        0.66170000       1.20860000       0.38410000
O       -0.11950000       0.15680000      -0.17020000
C        0.47610000      -0.49490000      -1.25690000
C        1.73840000      -1.30490000      -1.04740000
C        0.43000000      -2.01520000      -1.25490000
C       -0.24410000      -2.75580000      -0.12370000
C        0.28650000       0.15530000      -2.60580000
N       -0.59220000       1.20040000      -2.60470000
O        0.86730000      -0.23600000      -3.60260000
H        1.62300000       0.83880000       0.76140000
H        0.85370000       2.00050000      -0.35120000
H        0.08550000       1.62080000       1.21570000
H        2.45970000      -1.29420000      -1.85550000
H        2.14790000      -1.30430000      -0.04250000
H        0.29340000      -2.43910000      -2.24520000
H       -0.13130000      -2.21940000       0.82120000
H       -1.31620000      -2.87550000      -0.31220000
H        0.18940000      -3.75490000      -0.00830000
H       -1.19300000       1.32830000      -1.80710000
H       -0.87970000       1.56230000      -3.49950000
