18
Properties=species:S:1:pos:R:3 gdb_60082=T pbc="F F F"
C       -0.16240000       1.60070000      -0.01490000
C       -0.07810000       0.07640000      -0.10050000
O        0.94510000      -0.43580000       0.74410000
C       -1.37810000      -0.59390000       0.35410000
C       -1.39490000      -2.08980000       0.09710000
C       -2.56640000      -2.74040000      -0.53000000
O       -1.38840000      -2.47650000      -1.28490000
C       -0.57350000      -2.93220000       0.95460000
N        0.02460000      -3.63800000       1.64670000
H        0.78560000       2.05310000      -0.32460000
H       -0.94850000       1.99350000      -0.66840000
H       -0.36800000       1.91520000       1.01310000
H        0.10400000      -0.21930000      -1.14500000
H        1.80040000      -0.21030000       0.36660000
H       -1.52420000      -0.40390000       1.42330000
H       -2.21880000      -0.14890000      -0.18620000
H       -2.76900000      -3.78980000      -0.32760000
H       -3.43150000      -2.12520000      -0.77210000
