18
Properties=species:S:1:pos:R:3 gdb_16697=T pbc="F F F"
C       -0.27230000       1.62260000      -0.10910000
C        0.00640000       0.13270000       0.00570000
C        1.17340000      -0.58760000      -0.71840000
C        2.45280000       0.13500000      -0.25280000
C        2.12770000       0.13760000       1.27940000
O        2.02890000       1.40790000       1.89850000
C        0.74720000      -0.54750000       1.18870000
O        1.06820000      -1.65130000       0.28730000
H        0.60210000       2.23180000       0.11850000
H       -0.62160000       1.86480000      -1.11940000
H       -1.06380000       1.91510000       0.58910000
H       -0.90060000      -0.44940000      -0.17970000
H        1.10910000      -0.93740000      -1.74930000
H        3.34680000      -0.44180000      -0.49900000
H        2.55860000       1.14790000      -0.65110000
H        2.81760000      -0.51030000       1.83360000
H        2.91700000       1.76240000       2.00070000
H        0.25980000      -0.84310000       2.11760000
