18
Properties=species:S:1:pos:R:3 gdb_76870=T pbc="F F F"
C        0.41520000       1.59380000       0.14570000
C        0.11390000       0.10510000       0.04230000
C        0.96540000      -0.72540000      -0.99950000
O        1.89420000      -0.04590000      -1.79540000
C        1.55120000      -1.57070000       0.17330000
N        2.90760000      -1.13660000       0.55460000
C        2.76640000      -0.43490000       1.60670000
O        1.53900000      -0.21740000       2.12200000
C        0.62340000      -0.83050000       1.17690000
H        1.48130000       1.78860000       0.28350000
H        0.11020000       2.09880000      -0.77500000
H       -0.12280000       2.04700000       0.98370000
H       -0.95900000      -0.04100000      -0.11890000
H        0.32500000      -1.31190000      -1.66600000
H        2.72370000      -0.02420000      -1.29860000
H        1.51310000      -2.65790000       0.07500000
H        3.57670000       0.02410000       2.16330000
H       -0.12570000      -1.37520000       1.75030000
