23
Properties=species:S:1:pos:R:3 gdb_110255=T pbc="F F F"
C        0.04750000       1.59120000      -0.44560000
C        0.10310000       0.06640000      -0.33340000
C        1.29270000      -0.84800000      -0.79660000
C        2.09650000      -0.44490000       0.48210000
C        2.88730000       0.85910000       0.59640000
C        0.61080000      -0.67100000       0.94860000
C        0.67310000      -1.97920000       0.09400000
C       -0.55860000      -2.76860000      -0.30490000
O       -0.14500000      -3.69450000      -1.30600000
H        0.30250000       1.92600000      -1.45790000
H       -0.97530000       1.92980000      -0.24670000
H        0.69480000       2.11710000       0.25500000
H       -0.85560000      -0.31030000      -0.69530000
H        1.68180000      -0.96180000      -1.81060000
H        2.74000000      -1.25690000       0.84010000
H        2.79920000       1.29700000       1.59760000
H        3.94960000       0.64810000       0.43340000
H        2.60290000       1.61960000      -0.12990000
H        0.22140000      -0.57310000       1.96580000
H        1.42060000      -2.69810000       0.44540000
H       -0.93870000      -3.29630000       0.58580000
H       -1.37560000      -2.13530000      -0.67490000
H       -0.90150000      -4.24140000      -1.53670000
