17
Properties=species:S:1:pos:R:3 gdb_46925=T pbc="F F F"
O       -0.03130000      -0.09780000       0.30600000
C       -0.00660000       1.07810000       0.03460000
N       -1.14590000       1.84920000       0.11440000
C       -1.43800000       3.24170000      -0.21540000
C       -0.87210000       3.65010000      -1.56110000
N       -0.04160000       4.86670000      -1.56450000
C        0.59690000       3.54940000      -1.73140000
C        1.38390000       3.03030000      -0.55450000
O        1.17480000       1.62530000      -0.36500000
H       -1.91070000       1.29010000       0.45520000
H       -2.52740000       3.33750000      -0.21590000
H       -1.06510000       3.93460000       0.54740000
H       -1.49170000       3.44410000      -2.42960000
H       -0.10770000       5.33600000      -2.46350000
H        0.97520000       3.27640000      -2.71300000
H        2.46030000       3.12170000      -0.71770000
H        1.13560000       3.59290000       0.34980000
