19
Properties=species:S:1:pos:R:3 gdb_109347=T pbc="F F F"
O        0.21880000       1.34190000       0.16970000
C        0.02860000      -0.05860000       0.19370000
C       -1.40930000      -0.50220000       0.06050000
C       -2.44510000       0.33950000       0.05980000
C       -3.87770000      -0.10940000      -0.08680000
C       -4.02070000      -1.42470000      -0.87850000
C       -2.95050000      -2.44710000      -0.51930000
O       -1.81090000      -2.50570000      -1.38850000
C       -1.64030000      -1.96960000      -0.05980000
H       -0.06310000       1.65540000      -0.69640000
H        0.62920000      -0.56140000      -0.58360000
H        0.43480000      -0.39720000       1.15650000
H       -2.25830000       1.40120000       0.19590000
H       -4.32060000      -0.22250000       0.91400000
H       -4.46530000       0.67540000      -0.57570000
H       -5.01620000      -1.85120000      -0.71990000
H       -3.92640000      -1.21760000      -1.94960000
H       -3.29290000      -3.42560000      -0.18440000
H       -1.03750000      -2.60750000       0.58870000
