16
Properties=species:S:1:pos:R:3 gdb_4473=T pbc="F F F"
C        0.00080000       1.52660000       0.10180000
C        0.03050000       0.04140000      -0.00830000
C        0.02470000      -0.77650000      -1.11330000
O       -0.01630000      -0.30360000      -2.39940000
C        0.04260000      -2.13730000      -0.68510000
C        0.06860000      -2.11530000       0.69450000
N        0.15140000      -3.13280000       1.67030000
N        0.05580000      -0.80730000       1.09200000
H        0.86280000       1.92680000       0.65260000
H        0.02210000       1.95840000      -0.90140000
H       -0.90460000       1.89590000       0.60220000
H        0.02880000      -1.05370000      -2.99770000
H        0.00870000      -3.01880000      -1.30870000
H        0.53150000      -3.98090000       1.26780000
H       -0.75760000      -3.36450000       2.06230000
H        0.18750000      -0.51950000       2.04610000
