17
Properties=species:S:1:pos:R:3 gdb_7807=T pbc="F F F"
C        0.01250000       1.48520000      -0.01050000
N       -0.00010000       0.03330000      -0.06470000
C        0.78610000      -0.51130000      -1.15680000
C        0.50550000      -1.99900000      -1.24590000
O        0.75780000      -2.69100000      -0.01180000
C        0.60400000      -2.06970000       1.17780000
O        0.67880000      -2.70300000       2.19450000
C        0.43060000      -0.55450000       1.19350000
H        1.02250000       1.90310000       0.16300000
H       -0.37070000       1.89370000      -0.95030000
H       -0.63720000       1.82840000       0.80060000
H        0.48170000      -0.03990000      -2.09720000
H        1.87260000      -0.33050000      -1.03040000
H       -0.54330000      -2.16190000      -1.51810000
H        1.14390000      -2.48230000      -1.98970000
H        1.40940000      -0.15250000       1.52920000
H       -0.28750000      -0.32570000       1.98560000
