20
Properties=species:S:1:pos:R:3 gdb_63806=T pbc="F F F"
C       -0.14970000       1.57560000      -0.01360000
C        0.02320000       0.05770000       0.00100000
O       -1.25710000      -0.58090000       0.02130000
C        0.89510000      -0.50310000      -1.16120000
N        1.58990000      -1.69690000      -0.63820000
C        2.55040000      -1.45870000       0.45370000
C        2.28210000      -0.14170000       1.19310000
C        0.76500000      -0.51800000       1.21170000
C        1.16480000      -1.94290000       0.73400000
H        0.80710000       2.10090000       0.05180000
H       -0.63820000       1.89840000      -0.94130000
H       -0.77990000       1.89070000       0.82310000
H       -1.73980000      -0.30490000      -0.76520000
H        0.26070000      -0.80450000      -2.00130000
H        1.61910000       0.22910000      -1.53370000
H        3.49170000      -1.99540000       0.40910000
H        2.70720000      -0.16680000       2.19940000
H        2.58080000       0.79460000       0.71020000
H        0.23320000      -0.39610000       2.15420000
H        0.76920000      -2.90420000       1.03540000
