17
Properties=species:S:1:pos:R:3 gdb_28952=T pbc="F F F"
C       -0.05630000       1.48010000       0.12940000
C       -0.00970000      -0.00600000      -0.00590000
N       -0.00270000      -0.66820000      -1.14300000
C        0.05520000      -1.99990000      -0.80360000
C        0.08550000      -2.14770000       0.55410000
N        0.05090000      -0.86340000       1.06850000
C       -0.00950000      -0.50690000       2.46640000
C       -1.44010000      -0.29360000       2.96680000
O       -1.70400000       0.33200000       3.95650000
H        0.83060000       1.87680000       0.63820000
H       -0.09650000       1.90940000      -0.87210000
H       -0.93500000       1.82440000       0.68710000
H        0.07680000      -2.77250000      -1.55690000
H        0.13860000      -3.01030000       1.19820000
H        0.43630000      -1.31280000       3.06090000
H        0.57040000       0.39770000       2.66770000
H       -2.22040000      -0.77850000       2.33820000
