23
Properties=species:S:1:pos:R:3 gdb_100948=T pbc="F F F"
C        0.61370000       1.04580000      -0.51660000
C        0.15840000      -0.36210000      -0.12830000
C       -1.34770000      -0.46390000       0.11990000
O       -2.05370000      -0.17610000      -1.08970000
C       -2.94610000       0.91410000      -1.02350000
C       -1.75350000      -1.86790000       0.58650000
O       -1.03820000      -2.16610000       1.77240000
C       -3.25370000      -2.00550000       0.85510000
O       -3.52890000      -3.26930000       1.46210000
H        1.69100000       1.07130000      -0.70710000
H        0.10520000       1.38350000      -1.42440000
H        0.40240000       1.76820000       0.28020000
H        0.41740000      -1.06940000      -0.92660000
H        0.67290000      -0.70000000       0.77620000
H       -1.63500000       0.25270000       0.90450000
H       -3.39060000       1.02510000      -2.01650000
H       -3.75570000       0.74880000      -0.29640000
H       -2.43480000       1.85160000      -0.76160000
H       -1.48310000      -2.57790000      -0.21830000
H       -1.53860000      -2.87380000       2.20090000
H       -3.56840000      -1.25670000       1.59000000
H       -3.83050000      -1.86210000      -0.06560000
H       -3.43350000      -3.94770000       0.78470000
