19
Properties=species:S:1:pos:R:3 gdb_39724=T pbc="F F F"
C        0.00240000       1.51350000       0.00700000
C        1.30860000       0.74150000       0.00150000
C        0.00020000       0.01440000       0.01910000
C       -0.48680000      -0.86590000       1.14220000
C       -1.77840000      -1.52590000       0.63890000
C       -2.01810000      -0.99690000      -0.77190000
C       -0.51840000      -0.85550000      -1.12660000
O        0.01010000      -2.15450000      -0.79830000
C       -0.45750000      -2.25240000       0.53540000
H       -0.28110000       2.03680000       0.91420000
H       -0.28960000       2.02410000      -0.90600000
H        1.89090000       0.73030000      -0.91420000
H        1.90710000       0.74430000       0.90670000
H       -0.28890000      -0.66800000       2.18700000
H       -2.57110000      -1.84050000       1.30360000
H       -2.52850000      -1.71840000      -1.41600000
H       -2.54340000      -0.03880000      -0.79890000
H       -0.24500000      -0.58560000      -2.14460000
H       -0.18880000      -3.16630000       1.04510000
