23
Properties=species:S:1:pos:R:3 gdb_57398=T pbc="F F F"
C       -0.09600000       1.52720000       0.09330000
C        0.02090000      -0.00730000       0.01880000
C        0.81450000      -0.54820000       1.22420000
O       -1.28880000      -0.58310000       0.02100000
C        0.67410000      -0.42960000      -1.27540000
C        0.15180000      -1.24620000      -2.19190000
C        1.05390000      -1.42640000      -3.38820000
C        2.40120000      -0.83930000      -2.89830000
C        2.03160000       0.09110000      -1.71710000
H        0.88510000       2.01060000       0.06590000
H       -0.69370000       1.89810000      -0.74340000
H       -0.58620000       1.82400000       1.02820000
H        0.33330000      -0.24560000       2.16240000
H        0.84940000      -1.63990000       1.18680000
H        1.83880000      -0.16490000       1.24220000
H       -1.69800000      -0.36570000       0.86470000
H       -0.82750000      -1.69970000      -2.11290000
H        1.14280000      -2.47190000      -3.70550000
H        0.66040000      -0.87790000      -4.25680000
H        3.03720000      -1.65180000      -2.53190000
H        2.95730000      -0.32410000      -3.68580000
H        1.95440000       1.13960000      -2.03930000
H        2.78720000       0.07340000      -0.92320000
