20
Properties=species:S:1:pos:R:3 gdb_76134=T pbc="F F F"
C       -0.21920000       1.50850000       0.06920000
C        0.00700000       0.01160000       0.01570000
C       -1.19980000      -0.78790000      -0.43970000
C        1.35980000      -0.52360000      -0.34380000
O        2.43980000       0.28890000      -0.62650000
C        0.86410000      -0.68790000       1.10360000
C        1.56560000       0.08110000       2.16090000
N        1.43830000      -0.39940000       3.42700000
O        2.25110000       1.08010000       1.93290000
H        0.65890000       2.04820000       0.42150000
H       -0.46960000       1.87750000      -0.93170000
H       -1.05710000       1.75100000       0.73270000
H       -1.53610000      -0.44350000      -1.42430000
H       -0.97300000      -1.85610000      -0.52040000
H       -2.03840000      -0.67470000       0.25770000
H        1.38660000      -1.43740000      -0.93370000
H        2.62020000       0.81150000       0.17930000
H        0.52010000      -1.67390000       1.40180000
H        0.83650000      -1.17130000       3.65120000
H        1.89880000       0.09640000       4.17250000
