17
Properties=species:S:1:pos:R:3 gdb_108114=T pbc="F F F"
O        0.00020000       1.39890000       0.28580000
C       -0.03570000       0.04870000      -0.13870000
C       -1.40060000      -0.54570000      -0.01180000
O       -2.39550000       0.09470000      -0.80690000
C       -3.52540000      -0.64870000      -0.35670000
C       -3.11420000      -2.10970000      -0.64160000
C       -1.81450000      -2.00640000       0.14460000
C       -2.13130000      -0.98150000       1.23250000
O       -3.47240000      -0.55870000       1.06080000
H       -0.73430000       1.84500000      -0.15080000
H        0.31010000      -0.05490000      -1.17980000
H        0.66350000      -0.50480000       0.49640000
H       -4.45350000      -0.24200000      -0.74790000
H       -3.82330000      -2.82540000      -0.22060000
H       -2.96950000      -2.29470000      -1.70780000
H       -1.11090000      -2.81640000       0.27410000
H       -1.76190000      -0.96210000       2.24670000
