17
Properties=species:S:1:pos:R:3 gdb_75297=T pbc="F F F"
C       -0.19720000       1.53810000       0.08220000
C       -0.06700000       0.05020000       0.01270000
C        0.06640000      -0.71890000      -1.07310000
C        0.19800000      -2.19140000      -0.76310000
C        0.25540000      -2.22410000       0.76640000
O        1.63040000      -2.15250000       1.28840000
C        1.42140000      -0.90660000       1.82780000
O        2.18100000      -0.24930000       2.46240000
C       -0.00750000      -0.78820000       1.27190000
H        0.61890000       1.97130000       0.67300000
H       -0.17980000       1.98830000      -0.91340000
H       -1.13230000       1.83180000       0.57550000
H        0.08830000      -0.33760000      -2.08860000
H       -0.65140000      -2.77220000      -1.14510000
H        1.10390000      -2.64180000      -1.18660000
H       -0.27000000      -3.05200000       1.24210000
H       -0.78620000      -0.58850000       2.01100000
