16
Properties=species:S:1:pos:R:3 gdb_79125=T pbc="F F F"
O        0.00040000       1.44390000      -0.11510000
C        0.02010000       0.05030000      -0.01290000
C       -0.04920000      -0.61700000       1.38360000
C       -1.51810000      -0.09420000       1.57050000
C       -1.35660000      -0.61400000       0.09640000
N       -0.65130000      -1.83970000       0.68690000
C       -1.59970000      -2.43830000       1.64790000
C       -2.23700000      -1.20110000       2.30070000
O       -3.07610000      -1.13850000       3.15960000
H        0.90780000       1.76300000      -0.11260000
H        0.70950000      -0.43150000      -0.71500000
H        0.72070000      -0.72300000       2.15090000
H       -1.74830000       0.94110000       1.80420000
H       -2.13510000      -0.71290000      -0.66200000
H       -2.34020000      -3.05880000       1.13350000
H       -1.07570000      -3.06280000       2.37810000
