18
Properties=species:S:1:pos:R:3 gdb_30215=T pbc="F F F"
C       -0.06360000       1.54490000      -0.04830000
C        0.06870000       0.05860000      -0.07680000
C       -0.15230000      -0.85990000      -1.10080000
C        0.10760000      -2.18650000      -0.63630000
C        0.50970000      -2.02910000       0.67220000
C        0.81810000      -2.43640000       2.10550000
O        2.00930000      -3.12430000       2.38310000
C        0.77360000      -0.87520000       2.41300000
N        0.49560000      -0.69700000       0.97820000
H        0.89160000       2.04260000       0.15950000
H       -0.42100000       1.90430000      -1.01610000
H       -0.77700000       1.88200000       0.71390000
H       -0.45790000      -0.59120000      -2.10230000
H        0.00700000      -3.09940000      -1.20170000
H        0.02690000      -2.98750000       2.62140000
H        2.67180000      -2.82580000       1.74970000
H       -0.03450000      -0.54300000       3.07200000
H        1.72670000      -0.45290000       2.74510000
