15
Properties=species:S:1:pos:R:3 gdb_2129=T pbc="F F F"
C       -0.02290000       1.51860000       0.04180000
C       -0.00350000       0.02710000      -0.03340000
C       -0.05180000      -0.77630000      -1.10530000
C       -0.00960000      -2.24700000      -0.77090000
C        0.07860000      -2.27760000       0.76710000
C        0.07950000      -0.80420000       1.19780000
O        0.13730000      -0.38910000       2.33320000
H        0.87690000       1.88960000       0.54460000
H       -0.08620000       1.97690000      -0.94820000
H       -0.87130000       1.86200000       0.64360000
H       -0.11560000      -0.42990000      -2.13260000
H       -0.90010000      -2.76210000      -1.15170000
H        0.84720000      -2.73490000      -1.25160000
H       -0.76520000      -2.79200000       1.23600000
H        0.98660000      -2.76370000       1.13590000
