20
Properties=species:S:1:pos:R:3 gdb_120711=T pbc="F F F"
C       -0.09090000       1.32370000       0.08210000
O       -0.11820000      -0.07370000      -0.07030000
C        0.84770000      -0.53600000      -0.99770000
C        0.71700000      -2.03580000      -1.07550000
C       -0.24180000      -2.68720000      -2.01830000
C        1.24740000      -2.84440000      -2.25610000
C        1.84340000      -2.16650000      -3.45270000
N        2.98020000      -2.75460000      -3.92900000
O        1.36810000      -1.17170000      -3.97560000
H        0.88220000       1.67750000       0.46110000
H       -0.29380000       1.84430000      -0.86740000
H       -0.86680000       1.59080000       0.80420000
H        0.69820000      -0.08440000      -1.98620000
H        1.86070000      -0.25830000      -0.65580000
H        0.85040000      -2.52520000      -0.11460000
H       -0.79960000      -3.55750000      -1.69270000
H       -0.75000000      -2.04130000      -2.72580000
H        1.68930000      -3.80130000      -1.99570000
H        3.36660000      -3.59180000      -3.53170000
H        3.40900000      -2.36160000      -4.75050000
