19
Properties=species:S:1:pos:R:3 gdb_70410=T pbc="F F F"
C       -0.07900000       1.56680000       0.06910000
C        0.01510000       0.06780000       0.03070000
C       -0.81940000      -0.85190000       0.90890000
C        0.67350000      -0.93870000       0.94360000
O        1.14040000      -1.74670000      -0.13950000
C        0.65250000      -0.78390000      -1.10290000
C       -0.22450000      -1.39410000      -2.18560000
C        1.81850000      -0.01770000      -1.72690000
O        2.95540000      -0.06510000      -1.34610000
H        0.86590000       2.04410000      -0.21180000
H       -0.85980000       1.93780000      -0.60560000
H       -0.33220000       1.90800000       1.07750000
H       -1.28400000      -0.34110000       1.74760000
H       -1.39340000      -1.67990000       0.50370000
H        1.31080000      -0.83850000       1.81390000
H       -1.12030000      -1.84480000      -1.75440000
H       -0.53360000      -0.63240000      -2.90910000
H        0.32570000      -2.17340000      -2.72320000
H        1.51730000       0.62890000      -2.58530000
