22
Properties=species:S:1:pos:R:3 gdb_56150=T pbc="F F F"
C       -0.84030000       1.44350000       0.31770000
C        0.18880000       0.32330000       0.07840000
C        1.11170000       0.20470000       1.29890000
N       -0.48980000      -0.98750000      -0.09710000
H       -1.30860000      -0.87750000      -0.69190000
H        0.48690000      -1.95580000      -1.14620000
H       -0.82850000      -1.33460000       0.79630000
C        0.97700000       0.64300000      -1.21680000
C        2.18050000      -0.25150000      -1.59330000
C        1.91480000      -1.53740000      -2.38700000
O        0.96070000      -2.35220000      -1.92810000
O        2.56390000      -1.81770000      -3.36370000
H       -0.35010000       2.40630000       0.49420000
H       -1.50040000       1.56000000      -0.54940000
H       -1.46280000       1.21850000       1.19040000
H        0.52120000       0.10920000       2.21710000
H        1.76290000      -0.67020000       1.23050000
H        1.73940000       1.09450000       1.39950000
H        0.26780000       0.67190000      -2.05460000
H        1.35150000       1.66750000      -1.11340000
H        2.86760000       0.32420000      -2.21590000
H        2.74410000      -0.52980000      -0.69470000
