23
Properties=species:S:1:pos:R:3 gdb_120161=T pbc="F F F"
C        0.07420000       1.57750000      -0.18660000
C       -0.00980000       0.05800000      -0.01990000
C       -1.44030000      -0.48340000      -0.15240000
C       -1.50740000      -2.00060000      -0.04270000
C       -1.45190000      -2.75940000       1.32940000
C       -2.91780000      -2.31420000       1.60090000
C       -2.85500000      -2.75800000       0.10300000
O       -3.84930000      -2.70020000      -0.85680000
C       -2.03160000      -3.99500000       0.58340000
H        1.10420000       1.93520000      -0.08980000
H       -0.29560000       1.88800000      -1.17020000
H       -0.52950000       2.09310000       0.56890000
H        0.63190000      -0.42840000      -0.76650000
H        0.39690000      -0.22720000       0.95910000
H       -2.07790000       0.00490000       0.59270000
H       -1.84620000      -0.19240000      -1.13080000
H       -0.85180000      -2.44990000      -0.79970000
H       -0.63320000      -2.76600000       2.04520000
H       -3.49520000      -2.95680000       2.27250000
H       -3.10200000      -1.26090000       1.81330000
H       -4.59640000      -3.22930000      -0.55710000
H       -1.38610000      -4.47220000      -0.15860000
H       -2.55910000      -4.72890000       1.19980000
