20
Properties=species:S:1:pos:R:3 gdb_77740=T pbc="F F F"
C        0.29770000       1.53540000      -0.30910000
C        0.04470000       0.06380000      -0.04010000
C        0.83990000      -1.02780000      -0.77580000
C        2.11440000      -0.72610000      -1.09280000
C        2.98290000      -1.14690000       0.08780000
N        1.99600000      -1.41690000       1.17520000
C        0.83010000      -1.92710000       0.48020000
C        0.64110000      -0.68170000       1.24760000
C        0.10740000      -0.45090000       2.63310000
H        1.36470000       1.77520000      -0.27310000
H       -0.08030000       1.82690000      -1.29490000
H       -0.21840000       2.15180000       0.43490000
H       -1.03590000      -0.12730000       0.01400000
H        2.39160000       0.13340000      -1.69530000
H        3.59490000      -2.05310000      -0.01560000
H        3.65830000      -0.32110000       0.34250000
H        0.43680000      -2.92980000       0.60920000
H        0.43080000      -1.24780000       3.30630000
H        0.46280000       0.50220000       3.04020000
H       -0.98820000      -0.42160000       2.62150000
