22
Properties=species:S:1:pos:R:3 gdb_80021=T pbc="F F F"
C        0.94890000       1.38080000       0.35330000
N        0.71720000      -0.05430000       0.27490000
C       -0.67730000      -0.63500000       0.36430000
C       -0.33140000      -2.06390000      -0.07920000
C        0.77030000      -2.32030000       0.63290000
C        0.95280000      -1.01820000       1.42390000
C       -0.52710000      -0.76840000       1.94780000
C       -0.70550000       0.50480000       2.79070000
C       -1.29930000      -1.88260000       2.66520000
H        1.85630000       1.57420000       0.93660000
H        1.13180000       1.76410000      -0.65940000
H        0.13860000       1.98630000       0.78200000
H       -1.49800000      -0.10030000      -0.11700000
H       -0.86670000      -2.67080000      -0.79460000
H        1.39800000      -3.19850000       0.67120000
H        1.83670000      -0.87970000       2.04950000
H       -1.70390000       0.93340000       2.64290000
H       -0.62520000       0.24920000       3.85310000
H        0.02790000       1.28270000       2.59670000
H       -0.86160000      -2.07190000       3.65260000
H       -2.33680000      -1.56810000       2.83170000
H       -1.31170000      -2.82150000       2.11390000
