23
Properties=species:S:1:pos:R:3 gdb_70741=T pbc="F F F"
C       -0.07250000       1.50970000       0.06510000
C       -0.01180000      -0.00410000      -0.01170000
C       -0.81160000      -0.79430000       1.01250000
C        0.68300000      -0.73440000       1.11470000
O        1.38400000      -1.91120000       0.85470000
C        2.61860000      -1.69560000       0.17560000
C        2.46570000      -1.69430000      -1.34680000
C        1.59440000      -0.57020000      -1.92880000
C        0.14140000      -0.58000000      -1.41630000
H        0.78890000       1.97370000      -0.42950000
H       -0.97850000       1.89260000      -0.41980000
H       -0.08200000       1.85690000       1.10340000
H       -1.40160000      -0.25740000       1.74830000
H       -1.23310000      -1.74220000       0.69620000
H        1.11990000      -0.12820000       1.91170000
H        3.08120000      -0.75820000       0.52120000
H        3.27730000      -2.51810000       0.47600000
H        3.47110000      -1.64180000      -1.78580000
H        2.04620000      -2.66430000      -1.64370000
H        2.05540000       0.40380000      -1.71710000
H        1.59050000      -0.67040000      -3.02090000
H       -0.23470000      -1.60810000      -1.44500000
H       -0.49370000      -0.00200000      -2.09940000
