15
Properties=species:S:1:pos:R:3 gdb_125335=T pbc="F F F"
C        0.01220000       1.45930000       0.03540000
C        0.01010000      -0.03340000      -0.02210000
C       -0.14360000      -0.82690000      -1.14200000
N       -0.06950000      -2.11870000      -0.65210000
N       -0.12550000      -3.41620000      -1.09130000
C        0.03170000      -4.10400000       0.01080000
N        0.18450000      -3.31790000       1.13000000
C        0.11820000      -2.01370000       0.69260000
N        0.17570000      -0.78480000       1.13980000
H        0.95740000       1.83560000       0.44160000
H       -0.12920000       1.89060000      -0.95910000
H       -0.78730000       1.82850000       0.68690000
H       -0.28970000      -0.60520000      -2.18390000
H        0.04140000      -5.18100000       0.04800000
H        0.31990000      -3.62520000       2.07630000
