17
Properties=species:S:1:pos:R:3 gdb_35407=T pbc="F F F"
N       -0.35790000      -1.15570000      -0.40460000
C       -0.20560000      -0.02800000      -0.20110000
C       -0.00950000       1.40510000       0.02460000
N       -0.15190000       1.85940000       1.43430000
C        1.11290000       2.64620000       1.35450000
C        2.36860000       1.98700000       1.97980000
C        2.27970000       0.49660000       1.87930000
C        2.63260000       1.26820000       0.63730000
C        1.44120000       2.00030000      -0.00740000
H       -0.65400000       1.94420000      -0.68160000
H       -0.99460000       2.38820000       1.62150000
H        1.02190000       3.72690000       1.47400000
H        3.06810000       2.48900000       2.63710000
H        3.11850000      -0.04020000       2.31070000
H        1.32380000      -0.00100000       1.99290000
H        3.57280000       1.10430000       0.12600000
H        1.69000000       2.59670000      -0.88290000
