14
Properties=species:S:1:pos:R:3 gdb_7403=T pbc="F F F"
N        0.48760000       0.15790000       1.00270000
C        0.15450000      -0.00450000      -0.31840000
N        0.65090000       0.56710000      -1.34930000
C       -1.01940000      -0.94330000      -0.60550000
O       -1.70790000      -0.78920000      -1.58590000
C       -1.34250000      -2.13100000       0.31480000
N       -2.32060000      -2.90400000      -0.21520000
N       -0.70280000      -2.29490000       1.41720000
H        1.36090000       0.63020000       1.18450000
H        0.25900000      -0.63060000       1.60560000
H        1.43410000       1.17010000      -1.08460000
H       -2.76740000      -2.56800000      -1.05440000
H       -2.73260000      -3.65700000       0.30640000
H       -1.02080000      -3.11780000       1.93060000
