14
Properties=species:S:1:pos:R:3 gdb_43659=T pbc="F F F"
O        0.00500000      -0.01760000       0.17930000
C       -0.03920000       1.17870000       0.12300000
C       -1.27130000       2.07010000       0.04820000
C       -0.76930000       3.46730000       0.50770000
C        0.70720000       3.54640000       0.02910000
C        1.21190000       2.11220000       0.11090000
O        2.34680000       1.72970000       0.15670000
C       -1.59500000       4.56770000       0.02330000
N       -2.24620000       5.43530000      -0.37490000
H       -1.60020000       2.11150000      -0.99800000
H       -2.10040000       1.68040000       0.64030000
H       -0.78290000       3.49970000       1.60340000
H        0.74810000       3.86370000      -1.02070000
H        1.32410000       4.23570000       0.60710000
