20
Properties=species:S:1:pos:R:3 gdb_82102=T pbc="F F F"
O        0.80250000       1.27360000      -0.01760000
C        0.35650000      -0.05590000      -0.03320000
C       -1.06420000      -0.38330000       0.44970000
C       -2.09240000       0.25180000      -0.43900000
C       -1.40190000      -0.99180000      -0.92170000
C       -0.00170000      -0.66190000      -1.44190000
N        0.07390000       0.32530000      -2.50830000
C        1.22560000       0.24310000      -3.40500000
C       -0.12930000      -0.15560000      -3.87230000
H        0.46400000       1.67570000      -0.82920000
H        1.10400000      -0.66080000       0.48830000
H       -1.31470000      -0.75990000       1.43400000
H       -3.12040000       0.11160000      -0.12140000
H       -1.90200000       1.20620000      -0.91920000
H       -1.94180000      -1.90460000      -1.14080000
H        0.58280000      -1.56560000      -1.67060000
H        1.65610000       1.19200000      -3.71050000
H        1.94960000      -0.54950000      -3.22590000
H       -0.31850000      -1.21830000      -4.01010000
H       -0.70350000       0.49710000      -4.52330000
