21
Properties=species:S:1:pos:R:3 gdb_40202=T pbc="F F F"
C        0.01110000       1.43490000       0.09310000
O        1.15870000       0.58320000       0.16920000
C       -0.14010000      -0.02010000       0.03160000
C       -0.60520000      -0.88650000       1.19360000
C       -0.26560000      -2.31620000       0.72050000
C       -0.52670000      -2.29690000      -0.79610000
C       -2.02000000      -2.28350000      -1.24230000
C       -1.86180000      -0.82320000      -1.75340000
C       -0.38730000      -0.79830000      -1.24860000
H       -0.23670000       1.96890000       1.01060000
H       -0.07180000       2.02840000      -0.81740000
H       -0.11640000      -0.60160000       2.12790000
H       -1.68750000      -0.77290000       1.33250000
H        0.79520000      -2.51720000       0.90860000
H       -0.84430000      -3.08800000       1.23800000
H        0.08830000      -3.02150000      -1.33290000
H       -2.27230000      -3.01370000      -2.01460000
H       -2.73290000      -2.40620000      -0.42130000
H       -1.94840000      -0.72180000      -2.83760000
H       -2.52300000      -0.08330000      -1.29260000
H        0.36650000      -0.55240000      -1.99770000
