17
Properties=species:S:1:pos:R:3 gdb_125125=T pbc="F F F"
C       -0.68870000       1.49830000      -0.12450000
C       -0.15760000       0.11660000       0.07520000
C       -0.17810000      -0.89260000      -0.97230000
O       -0.58170000      -0.88100000      -2.10420000
O        0.39310000      -2.05540000      -0.42600000
N        0.64630000      -1.80360000       0.93000000
C        0.41050000      -0.45890000       1.15960000
C        0.76930000       0.09810000       2.50830000
N        1.30850000      -0.95320000       3.37370000
H        1.72260000      -0.54190000       4.20250000
H        0.56300000      -1.56650000       3.68800000
H        1.56050000      -2.16220000       1.19010000
H       -0.86410000       2.00660000       0.82800000
H        0.00120000       2.11600000      -0.71160000
H       -1.63170000       1.46550000      -0.67910000
H        1.54920000       0.85670000       2.37100000
H       -0.10480000       0.63100000       2.91800000
