18
Properties=species:S:1:pos:R:3 gdb_15803=T pbc="F F F"
C       -0.94670000       1.00250000      -0.36620000
C        0.17350000       0.03600000       0.02500000
C        0.67690000      -0.79080000      -1.15760000
C        1.81970000      -1.72230000      -0.79970000
O        2.34890000      -1.74120000       0.28920000
C        2.32790000      -2.64870000      -1.87530000
C        1.42230000      -3.57740000      -2.58350000
O        1.91760000      -2.41070000      -3.22300000
H       -0.61180000       1.71310000      -1.13020000
H       -1.81360000       0.46850000      -0.77170000
H       -1.28780000       1.58040000       0.49810000
H        1.01570000       0.58670000       0.45680000
H       -0.17100000      -0.64060000       0.81510000
H       -0.13660000      -1.37550000      -1.60870000
H        1.03010000      -0.14680000      -1.97550000
H        3.36610000      -2.94850000      -1.73970000
H        1.82460000      -4.52300000      -2.94270000
H        0.35800000      -3.57640000      -2.35510000
