19
Properties=species:S:1:pos:R:3 gdb_94331=T pbc="F F F"
C       -0.33410000       1.41400000       0.04650000
C        0.05420000      -0.05350000      -0.05740000
C        1.38320000      -0.38930000      -0.77810000
O        1.94500000      -0.96480000       0.42860000
C        0.74890000      -0.69280000       1.14340000
C        0.75110000      -0.33400000       2.58340000
C        0.19030000      -1.69490000       2.13560000
C       -1.21670000      -1.94710000       2.16900000
C       -2.40560000      -2.13790000       2.16540000
H        0.50120000       2.02090000       0.41130000
H       -0.63740000       1.80600000      -0.93020000
H       -1.17600000       1.54840000       0.73320000
H       -0.79160000      -0.64980000      -0.40920000
H        1.32280000      -1.12550000      -1.58680000
H        1.96350000       0.47780000      -1.11490000
H        1.70480000      -0.35500000       3.09950000
H        0.04340000       0.40620000       2.94050000
H        0.83680000      -2.54630000       2.32880000
H       -3.45190000      -2.31700000       2.17830000
