23
Properties=species:S:1:pos:R:3 gdb_123092=T pbc="F F F"
C       -0.08230000       1.51080000       0.08410000
C       -0.04380000      -0.01600000      -0.02010000
C        0.72560000      -0.51560000      -1.24770000
C        0.76480000      -2.04390000      -1.35310000
C        1.53220000      -2.51650000      -2.57680000
O        1.50980000      -3.95700000      -2.58250000
C        2.15060000      -4.55160000      -3.61000000
C        2.05390000      -6.05510000      -3.50030000
O        2.71660000      -3.94650000      -4.48540000
H        0.92830000       1.92880000       0.15250000
H       -0.56390000       1.95570000      -0.79370000
H       -0.63750000       1.83690000       0.96900000
H        0.41200000      -0.43510000       0.88660000
H       -1.06880000      -0.40830000      -0.05240000
H        0.27010000      -0.09670000      -2.15580000
H        1.75170000      -0.12350000      -1.21630000
H        1.22860000      -2.47020000      -0.45500000
H       -0.25590000      -2.44330000      -1.39640000
H        1.08380000      -2.14890000      -3.50610000
H        2.57320000      -2.17580000      -2.56170000
H        1.00500000      -6.36470000      -3.49840000
H        2.57630000      -6.51430000      -4.33850000
H        2.49290000      -6.39160000      -2.55670000
