15
Properties=species:S:1:pos:R:3 gdb_128823=T pbc="F F F"
C       -0.07650000       1.42010000       0.01130000
O        0.01330000       0.01130000       0.00200000
C       -1.23490000      -0.60690000       0.01030000
C       -1.06210000      -2.09430000       0.00120000
N        0.06680000      -2.71860000      -0.00930000
O       -0.27580000      -4.09830000      -0.01430000
C       -1.63490000      -4.25640000      -0.00640000
O       -2.22510000      -5.29750000      -0.00810000
N       -2.12770000      -2.95680000       0.00350000
H        0.94520000       1.80330000       0.00370000
H       -0.60920000       1.79860000      -0.87460000
H       -0.59190000       1.78790000       0.91180000
H       -1.82510000      -0.32600000       0.90280000
H       -1.84150000      -0.31690000      -0.86810000
H       -3.10880000      -2.73810000       0.01070000
