16
Properties=species:S:1:pos:R:3 gdb_97064=T pbc="F F F"
C       -0.07140000       1.42270000      -0.03070000
N       -0.00340000      -0.02820000      -0.02550000
C        0.63860000      -0.62550000      -0.92830000
O        1.30040000      -0.05300000      -1.98370000
C        2.10680000      -1.03890000      -2.67050000
C        1.39710000      -2.37520000      -2.41790000
O        2.23000000      -3.49480000      -2.45220000
C        0.79480000      -2.11910000      -1.04220000
O        0.58210000      -2.96960000      -0.21890000
H        0.66890000       1.90530000      -0.67800000
H       -1.07260000       1.72880000      -0.35800000
H        0.04860000       1.78060000       0.99640000
H        2.15860000      -0.74290000      -3.71820000
H        3.11600000      -1.06520000      -2.24430000
H        0.55550000      -2.46910000      -3.12800000
H        1.95800000      -4.05570000      -1.71060000
