11
Properties=species:S:1:pos:R:3 gdb_132340=T pbc="F F F"
O       -0.08620000       1.26000000       0.00990000
C        0.03850000      -0.04990000       0.00240000
N        1.20630000      -0.61870000      -0.00700000
C        1.11540000      -1.97560000      -0.01330000
F        2.28260000      -2.57060000      -0.02310000
N        0.06870000      -2.71770000      -0.01130000
C       -1.15170000      -2.08320000      -0.00140000
N       -2.31020000      -2.56830000       0.00280000
O       -1.12870000      -0.64810000       0.00590000
H        0.80980000       1.62960000       0.00680000
H       -2.24270000      -3.58430000      -0.00260000
