19
Properties=species:S:1:pos:R:3 gdb_104355=T pbc="F F F"
C       -0.16290000       1.63180000       0.04100000
C        0.01040000       0.11260000      -0.03260000
C       -1.37080000      -0.60260000      -0.05030000
O       -2.17640000      -0.26730000       1.05390000
C        0.89840000      -0.37760000      -1.18940000
O        1.58210000      -1.54030000      -0.71360000
C        1.89060000      -1.32550000       0.64800000
C        0.76330000      -0.44510000       1.17900000
O        0.46900000      -0.26820000       2.33780000
H        0.80190000       2.14160000       0.12510000
H       -0.66470000       2.00120000      -0.85990000
H       -0.77560000       1.89840000       0.90340000
H       -1.91610000      -0.28270000      -0.94610000
H       -1.21110000      -1.69010000      -0.13130000
H       -1.64030000      -0.37030000       1.85230000
H        0.33640000      -0.67330000      -2.07970000
H        1.62080000       0.40210000      -1.47810000
H        1.94960000      -2.28320000       1.17150000
H        2.85190000      -0.79780000       0.78230000
