16
Properties=species:S:1:pos:R:3 gdb_93346=T pbc="F F F"
C        0.13010000       1.60830000       0.00050000
C       -0.00310000       0.08450000       0.03370000
C        0.70350000      -0.61690000      -1.14260000
O        1.98000000      -1.01270000      -0.62970000
C        1.95170000      -1.07070000       0.73300000
O        2.83670000      -1.50550000       1.39810000
N        0.72330000      -0.51820000       1.15470000
C        0.24870000      -0.50070000       2.46070000
O        0.79980000      -0.95400000       3.42490000
H        1.18130000       1.90220000      -0.08050000
H       -0.41260000       2.01670000      -0.85780000
H       -0.28200000       2.05870000       0.90810000
H       -1.05860000      -0.20050000       0.07680000
H        0.16250000      -1.50880000      -1.47650000
H        0.86520000       0.04710000      -1.99360000
H       -0.74490000      -0.00960000       2.50030000
