17
Properties=species:S:1:pos:R:3 gdb_81398=T pbc="F F F"
O        0.26090000       1.41750000      -0.09540000
C        0.11680000       0.03300000       0.00750000
C        0.05920000      -0.67970000       1.38860000
C       -0.95230000       0.16020000       2.18820000
C       -2.08920000       0.20150000       1.10200000
C       -2.61970000       1.50730000       0.75460000
C       -3.10400000       2.56930000       0.46730000
C       -1.30840000      -0.55430000      -0.01540000
O       -0.77770000      -1.68440000       0.73520000
H        1.19680000       1.62690000      -0.16880000
H        0.75900000      -0.52480000      -0.68180000
H        0.93170000      -1.08920000       1.89790000
H       -1.27160000      -0.33590000       3.10580000
H       -0.56990000       1.15550000       2.42030000
H       -2.91550000      -0.44780000       1.40830000
H       -3.51290000       3.51420000       0.20890000
H       -1.84360000      -0.81890000      -0.92600000
