20
Properties=species:S:1:pos:R:3 gdb_93015=T pbc="F F F"
O       -0.09780000       1.45140000       0.04730000
C        0.03150000       0.03670000       0.01900000
C        0.75990000      -0.50300000       1.25950000
C        0.62240000      -1.99930000       1.37920000
C       -0.31320000      -2.69290000       0.72790000
C       -1.33080000      -2.06170000      -0.14720000
C       -1.70240000      -2.77870000      -1.40620000
N       -2.65020000      -2.71680000      -0.28780000
C       -1.37750000      -0.54610000      -0.06280000
H        0.78590000       1.83090000       0.08790000
H        0.59310000      -0.27700000      -0.87700000
H        1.82280000      -0.22650000       1.22320000
H        0.34700000      -0.00300000       2.14750000
H        1.33130000      -2.51910000       2.01790000
H       -0.35970000      -3.77660000       0.82460000
H       -1.98860000      -2.20230000      -2.28240000
H       -1.20560000      -3.72070000      -1.62610000
H       -2.65480000      -3.60110000       0.21650000
H       -1.93110000      -0.25180000       0.83710000
H       -1.90900000      -0.12380000      -0.91960000
