20
Properties=species:S:1:pos:R:3 gdb_93507=T pbc="F F F"
C       -0.10780000       1.60810000      -0.05380000
C       -0.00990000       0.07660000      -0.03040000
C        0.73400000      -0.48260000      -1.24890000
N        2.16690000      -0.30770000      -1.07060000
C        2.83820000      -0.06880000       0.09850000
O        4.02900000       0.11610000       0.15480000
O        2.08260000      -0.01710000       1.22870000
C        0.71610000      -0.47730000       1.20450000
C        0.11670000      -0.10020000       2.54970000
H        0.87920000       2.07580000      -0.00980000
H       -0.59970000       1.94240000      -0.97240000
H       -0.69380000       1.98260000       0.78930000
H       -1.02130000      -0.34620000      -0.03700000
H        0.48610000      -1.54650000      -1.37810000
H        0.42120000       0.03520000      -2.16280000
H        2.77410000      -0.35080000      -1.87230000
H        0.73480000      -1.57440000       1.12200000
H        0.14070000       0.98130000       2.70320000
H       -0.92050000      -0.44340000       2.61320000
H        0.68740000      -0.56790000       3.35580000
