17
Properties=species:S:1:pos:R:3 gdb_106864=T pbc="F F F"
O        0.01380000       1.41490000       0.31180000
C        0.01130000       0.04600000      -0.06260000
C       -1.36020000      -0.54470000       0.01500000
C       -2.06400000      -1.08320000       1.21190000
C       -1.90950000      -1.97860000      -0.01920000
C       -2.83610000      -1.43490000      -1.11180000
O       -2.31410000      -0.08970000      -0.95200000
C       -1.26920000      -3.24460000      -0.01390000
C       -0.73800000      -4.32510000      -0.02350000
H       -0.57250000       1.87600000      -0.29840000
H        0.41000000      -0.09280000      -1.07840000
H        0.67450000      -0.47450000       0.63480000
H       -1.42990000      -1.36990000       2.04390000
H       -3.04600000      -0.70190000       1.47820000
H       -2.60050000      -1.82630000      -2.10620000
H       -3.91480000      -1.49040000      -0.92760000
H       -0.26670000      -5.27640000      -0.02860000
