20
Properties=species:S:1:pos:R:3 gdb_57652=T pbc="F F F"
C        0.03470000       1.67540000      -0.03260000
C        0.04560000       0.14320000       0.01640000
O        0.61090000      -0.34090000       1.22100000
C       -1.37120000      -0.46910000      -0.14790000
N       -2.11360000      -0.27970000       1.09430000
C       -3.15420000       0.74600000       1.12480000
C       -3.51050000      -0.69890000       1.10600000
C        0.89900000      -0.42430000      -1.11710000
O        0.92210000       0.01550000      -2.23700000
H        1.03640000       2.05460000       0.18570000
H       -0.25990000       2.02440000      -1.02570000
H       -0.65220000       2.08060000       0.71470000
H       -0.13240000      -0.40990000       1.83970000
H       -1.87200000      -0.04010000      -1.02900000
H       -1.27080000      -1.54950000      -0.30750000
H       -3.22740000       1.31910000       2.04420000
H       -3.32820000       1.31620000       0.21460000
H       -3.92580000      -1.09780000       0.18270000
H       -3.84630000      -1.19680000       2.01090000
H        1.48720000      -1.31770000      -0.81110000
