13
Properties=species:S:1:pos:R:3 gdb_129090=T pbc="F F F"
N        0.20410000       1.40510000       0.28760000
C        0.12500000       0.12820000       0.19460000
C        1.26160000      -0.80070000       0.33040000
N        1.24950000      -2.08000000       0.24870000
O        0.00570000      -2.68490000      -0.00090000
C       -1.08440000      -1.92590000      -0.13940000
C       -1.12160000      -0.57710000      -0.06170000
C       -2.42010000       0.11660000      -0.23980000
O       -3.46090000      -0.46490000      -0.45340000
H        1.16450000       1.70260000       0.46980000
H        2.25260000      -0.39260000       0.52470000
H       -1.96990000      -2.52380000      -0.32750000
H       -2.36470000       1.21690000      -0.16180000
