12
Properties=species:S:1:pos:R:3 gdb_8623=T pbc="F F F"
O       -0.01070000       1.49390000       0.13750000
C        0.00340000       0.09960000       0.04500000
C       -1.46040000      -0.41390000      -0.05410000
O       -1.75350000      -1.56640000      -0.19490000
C        0.72420000      -0.33520000      -1.25330000
O        1.23220000       0.48670000      -1.96750000
C        0.69330000      -0.55760000       1.15600000
C        1.27070000      -1.11330000       2.05090000
H        0.55410000       1.81180000      -0.58740000
H       -2.19180000       0.41930000      -0.01270000
H        0.73350000      -1.41960000      -1.45300000
H        1.77390000      -1.59510000       2.85340000
