21
Properties=species:S:1:pos:R:3 gdb_72358=T pbc="F F F"
C       -0.32440000       1.40710000       0.20460000
C        0.07200000      -0.04940000      -0.05320000
C       -1.20480000      -0.94780000      -0.13790000
C       -1.23990000      -1.68910000       1.17460000
C       -0.11490000      -1.54110000       1.86960000
C        0.88200000      -0.65910000       1.15270000
C        2.02470000      -1.39300000       0.48330000
C        2.07670000      -1.16140000      -0.82670000
C        1.00630000      -0.20310000      -1.28820000
H        0.55850000       2.03700000       0.35980000
H       -0.88610000       1.81960000      -0.64140000
H       -0.95640000       1.48750000       1.09620000
H       -2.10850000      -0.34880000      -0.30850000
H       -1.14810000      -1.65670000      -0.97500000
H       -2.08800000      -2.29420000       1.47770000
H        0.09980000      -2.00490000       2.82650000
H        1.27330000       0.11930000       1.82520000
H        2.71000000      -2.02690000       1.03630000
H        2.81590000      -1.57740000      -1.50370000
H        0.46880000      -0.56090000      -2.17490000
H        1.44920000       0.76130000      -1.57570000
