16
Properties=species:S:1:pos:R:3 gdb_27302=T pbc="F F F"
C       -0.02600000       1.51470000      -0.00600000
C       -0.04120000       0.01730000       0.00650000
C       -1.15740000      -0.71420000       0.16760000
N       -1.10050000      -2.09780000       0.15620000
C        0.10980000      -2.71760000      -0.01330000
N        0.08900000      -4.09830000       0.05400000
N        1.22740000      -2.09050000      -0.18140000
C        1.25270000      -0.69040000      -0.16130000
O        2.29530000      -0.07280000      -0.28900000
H        0.63490000       1.89550000       0.77920000
H        0.38360000       1.88580000      -0.95130000
H       -1.02670000       1.93350000       0.13580000
H       -2.14550000      -0.29080000       0.30700000
H       -1.91150000      -2.63550000       0.41420000
H       -0.70060000      -4.56060000      -0.37430000
H        0.97730000      -4.49150000      -0.22420000
