15
Properties=species:S:1:pos:R:3 gdb_47334=T pbc="F F F"
O       -0.09120000      -0.07340000       0.00600000
C       -0.05020000       1.13910000       0.05950000
C       -1.31940000       1.98720000       0.00150000
O       -1.16210000       3.24510000       0.63060000
C       -0.10640000       4.00500000       0.09880000
C        1.20860000       3.24470000       0.06730000
C        1.21030000       1.89540000       0.10650000
C        2.39060000       4.01890000      -0.02690000
C        3.36290000       4.72640000      -0.10900000
H       -1.60970000       2.10220000      -1.05860000
H       -2.12600000       1.46280000       0.51730000
H       -0.33690000       4.35800000      -0.92360000
H       -0.00500000       4.89060000       0.73230000
H        2.13100000       1.32250000       0.10740000
H        4.23250000       5.33240000      -0.18300000
