15
Properties=species:S:1:pos:R:3 gdb_47318=T pbc="F F F"
O       -0.03410000      -0.06340000       0.49250000
C       -0.06830000       1.07340000       0.09360000
C       -1.32930000       1.91680000       0.03340000
C       -1.65430000       2.30440000      -1.41850000
O       -0.49130000       2.70320000      -2.16790000
C        0.31060000       3.64440000      -1.58580000
O        0.33840000       4.79120000      -1.90420000
O        1.11910000       3.15390000      -0.62030000
C        1.21020000       1.73830000      -0.42410000
H       -2.15820000       1.35080000       0.46330000
H       -1.17620000       2.82020000       0.63560000
H       -2.04870000       1.44560000      -1.96500000
H       -2.39560000       3.11080000      -1.44810000
H        2.00280000       1.59740000       0.31340000
H        1.50650000       1.23700000      -1.35180000
