18
Properties=species:S:1:pos:R:3 gdb_92680=T pbc="F F F"
C        0.06580000       1.55760000       0.07840000
C       -0.01980000       0.02960000       0.00700000
C        0.81020000      -0.57680000      -1.16480000
N        2.01810000      -1.17520000      -0.56910000
C        1.80600000      -1.16370000       0.69610000
C        2.75400000      -1.71100000       1.63270000
N        3.49430000      -2.13920000       2.40990000
N        0.61920000      -0.63820000       1.15530000
C        0.30370000      -0.32890000       2.53210000
H        1.10870000       1.88750000       0.12970000
H       -0.38520000       1.99160000      -0.81960000
H       -0.46820000       1.95930000       0.94460000
H       -1.07200000      -0.27290000      -0.04530000
H        0.25610000      -1.36250000      -1.69300000
H        1.08800000       0.17860000      -1.90640000
H        0.85270000      -1.00550000       3.19040000
H        0.55930000       0.70240000       2.81150000
H       -0.76680000      -0.47750000       2.70930000
