16
Properties=species:S:1:pos:R:3 gdb_7087=T pbc="F F F"
C        0.08560000       1.44100000       0.00870000
C        0.03380000      -0.01070000       0.00090000
C       -0.02830000      -1.21610000      -0.00480000
C       -0.08500000      -2.66430000      -0.01160000
O       -1.14100000      -3.26580000      -0.00470000
C        1.25810000      -3.36850000      -0.02790000
C        1.13660000      -4.88520000      -0.03540000
O        2.45780000      -5.40780000      -0.05040000
H        1.11740000       1.80700000       0.00130000
H       -0.42730000       1.85150000      -0.86780000
H       -0.41120000       1.84140000       0.89910000
H        1.82470000      -3.02750000      -0.90390000
H        1.84050000      -3.03740000       0.84160000
H        0.57750000      -5.21560000       0.85140000
H        0.56130000      -5.20560000      -0.91540000
H        2.39730000      -6.36740000      -0.05460000
