23
Properties=species:S:1:pos:R:3 gdb_120911=T pbc="F F F"
C       -0.11170000       1.48270000      -0.03670000
C        0.21890000       0.00010000      -0.06880000
O        0.40070000      -0.45060000       1.26070000
C        0.67800000      -1.82650000       1.35520000
C        2.11990000      -2.35680000       1.02660000
C        2.16240000      -2.98230000       2.42560000
C        2.02570000      -1.94250000       3.50080000
C        2.63600000      -0.55560000       3.48460000
C        0.78200000      -2.38130000       2.76900000
H        0.70320000       2.04860000       0.42380000
H       -0.26750000       1.86210000      -1.05120000
H       -1.02090000       1.65940000       0.54510000
H       -0.59610000      -0.56790000      -0.54940000
H        1.12870000      -0.17890000      -0.66460000
H       -0.06520000      -2.39240000       0.77310000
H        2.12530000      -3.08820000       0.21570000
H        2.87690000      -1.59490000       0.81810000
H        2.52100000      -3.98230000       2.63760000
H        2.05740000      -2.40170000       4.48850000
H        2.52470000      -0.06640000       2.51700000
H        2.14370000       0.08350000       4.22550000
H        3.70200000      -0.59900000       3.73680000
H       -0.04800000      -2.83650000       3.29690000
