18
Properties=species:S:1:pos:R:3 gdb_20135=T pbc="F F F"
C        1.16150000      -0.95240000      -0.42190000
C        0.00550000      -0.19200000      -0.97430000
N        0.54700000       0.12500000       0.34650000
C       -0.19350000      -0.23590000       1.53490000
C       -1.35500000       0.71180000       1.99640000
C       -2.22270000      -0.53350000       2.20280000
N       -2.39380000      -1.14020000       0.86470000
C       -1.16840000      -1.43530000       1.65650000
H        0.97160000      -1.97800000      -0.10870000
H        2.17200000      -0.76670000      -0.77610000
H        0.17590000       0.57200000      -1.72860000
H       -0.95370000      -0.69400000      -1.02560000
H        0.53620000      -0.32440000       2.34740000
H       -1.11830000       1.26680000       2.90560000
H       -1.73030000       1.39430000       1.23110000
H       -2.94150000      -0.72170000       2.99010000
H       -3.00850000      -1.94670000       0.97390000
H       -0.92770000      -2.45610000       1.92970000
