17
Properties=species:S:1:pos:R:3 gdb_65862=T pbc="F F F"
C       -0.24240000       1.74010000       0.35900000
C        0.12080000       0.28350000       0.08860000
C        0.86620000       0.02000000      -1.22040000
C        1.91010000      -1.03080000      -0.84020000
O        2.65350000      -1.62050000      -1.57480000
C        1.82950000      -1.19330000       0.68080000
O        1.00190000      -0.14440000       1.15100000
C       -1.15290000      -0.56760000       0.20290000
O       -1.73150000      -1.07880000      -0.71890000
H        0.66910000       2.34360000       0.38170000
H       -0.90710000       2.12350000      -0.42040000
H       -0.74220000       1.83970000       1.32730000
H        0.20820000      -0.35710000      -2.00640000
H        1.37660000       0.91430000      -1.59160000
H        1.41880000      -2.18860000       0.91490000
H        2.81660000      -1.11380000       1.14520000
H       -1.49960000      -0.67660000       1.25470000
