16
Properties=species:S:1:pos:R:3 gdb_20549=T pbc="F F F"
C       -0.17870000       1.61890000      -0.03460000
C        0.04030000       0.10210000      -0.03700000
C       -1.28470000      -0.67380000       0.09100000
C        0.79290000      -0.36630000      -1.24790000
N        1.10530000       0.40880000      -2.25320000
O        1.78410000      -0.44630000      -3.13610000
C        1.79740000      -1.64150000      -2.54760000
N        1.21480000      -1.67890000      -1.39480000
H        0.76790000       2.16130000      -0.09940000
H       -0.79550000       1.92710000      -0.88390000
H       -0.68850000       1.91960000       0.88530000
H        0.66400000      -0.16890000       0.82570000
H       -1.95760000      -0.42980000      -0.73790000
H       -1.11000000      -1.75230000       0.08530000
H       -1.78710000      -0.40720000       1.02550000
H        2.28490000      -2.44590000      -3.07910000
