18
Properties=species:S:1:pos:R:3 gdb_92995=T pbc="F F F"
C       -0.31340000       1.56990000      -0.09010000
C        0.03180000       0.09280000      -0.02540000
O        0.97550000      -0.22150000      -1.09340000
C        1.95000000      -0.95510000      -0.51860000
N        1.93380000      -1.17400000       0.72950000
C        0.75110000      -0.45810000       1.25380000
C        1.19330000       0.58990000       2.29400000
C        1.86040000      -0.05930000       3.49130000
O        1.49570000       0.09840000       4.62910000
H        0.56500000       2.19620000       0.08530000
H       -0.71680000       1.81440000      -1.07620000
H       -1.07240000       1.81780000       0.65790000
H       -0.86470000      -0.50360000      -0.22750000
H        2.71010000      -1.31020000      -1.20630000
H        0.09840000      -1.17990000       1.75680000
H        1.92240000       1.26790000       1.83080000
H        0.34570000       1.17800000       2.65550000
H        2.72560000      -0.70740000       3.24270000
