18
Properties=species:S:1:pos:R:3 gdb_83167=T pbc="F F F"
C       -0.76140000       1.22690000       0.10320000
C       -0.11250000      -0.13560000       0.00620000
C        0.74900000      -0.58230000      -1.16870000
C        1.25840000       0.39990000      -2.19620000
O        2.66190000       0.67350000      -1.98810000
C        3.04610000       1.05610000      -0.74570000
N        4.14420000       1.61590000      -0.48180000
O        2.15500000       0.83360000       0.25840000
C        1.36420000      -0.33050000       0.18070000
H       -0.06200000       2.03080000      -0.13400000
H       -1.62330000       1.30450000      -0.56770000
H       -1.11530000       1.40050000       1.12430000
H       -0.70760000      -0.94250000       0.42550000
H        0.65540000      -1.61100000      -1.49760000
H        1.20610000      -0.00830000      -3.20620000
H        0.70810000       1.34630000      -2.18330000
H        4.64640000       1.79970000      -1.34880000
H        1.75450000      -1.14230000       0.78700000
