10
Properties=species:S:1:pos:R:3 gdb_1022=T pbc="F F F"
N        0.02820000      -1.14090000      -0.00390000
C        0.01710000       0.01640000       0.00250000
C       -0.02860000       1.43620000       0.01100000
C       -1.15970000       2.22170000       0.03070000
N       -0.69610000       3.50810000       0.03160000
C        0.67080000       3.45360000       0.01280000
N        1.10900000       2.22140000       0.00000000
H       -2.20820000       1.97780000       0.04350000
H       -1.26310000       4.34020000       0.04380000
H        1.28290000       4.34270000       0.00940000
