14
Properties=species:S:1:pos:R:3 gdb_24461=T pbc="F F F"
C        0.03350000       1.37540000       0.02620000
O        1.32010000       1.92660000       0.00650000
C        2.09210000       1.63770000       1.18090000
C        1.82950000       0.20710000       1.48610000
C        0.89530000      -0.53850000       0.85330000
O        0.02590000      -0.05590000      -0.05740000
N        0.94850000      -1.84630000       1.27690000
C        1.90960000      -1.83040000       2.14840000
O        2.50260000      -0.62540000       2.34120000
H       -0.50130000       1.66170000       0.94550000
H       -0.48270000       1.73450000      -0.86340000
H        3.13500000       1.83390000       0.91090000
H        1.82140000       2.31780000       2.00410000
H        2.28720000      -2.65210000       2.73520000
