18
Properties=species:S:1:pos:R:3 gdb_41010=T pbc="F F F"
C       -0.03570000       1.40490000      -0.34260000
C        1.47470000       1.52920000       0.06390000
C        1.15820000       0.30880000       0.93650000
C        1.65270000      -0.96850000       1.64010000
O        2.02610000      -0.25170000       2.85780000
C        0.74780000       0.34950000       2.47170000
C        0.12940000      -1.02510000       2.12680000
C       -0.85090000      -0.80180000       0.96240000
N        0.03730000      -0.01390000       0.08760000
H       -0.68270000       2.03480000       0.28800000
H       -0.29840000       1.55230000      -1.39330000
H        2.14100000       1.30930000      -0.77180000
H        1.79630000       2.43500000       0.57690000
H        2.29620000      -1.77610000       1.29170000
H        0.35210000       1.14880000       3.09970000
H       -0.11590000      -1.70950000       2.93760000
H       -1.19330000      -1.72200000       0.47750000
H       -1.73670000      -0.24220000       1.29770000
