18
Properties=species:S:1:pos:R:3 gdb_128163=T pbc="F F F"
C       -0.57920000       1.39010000       0.16250000
N        0.35250000       0.27910000      -0.05930000
C        0.80430000      -0.39530000       1.10700000
C        2.12830000      -0.34940000       1.49740000
O        3.17040000       0.26820000       0.91880000
N        2.24490000      -1.07370000       2.62410000
N        1.05000000      -1.61750000       3.00950000
C        0.17660000      -1.20690000       2.09600000
C       -1.25850000      -1.61860000       2.18760000
H       -0.09880000       2.13910000       0.79850000
H       -0.81610000       1.85870000      -0.79800000
H       -1.52370000       1.09570000       0.64470000
H       -0.03850000      -0.36800000      -0.73550000
H        2.79980000       0.67490000       0.11920000
H        3.07470000      -1.25270000       3.16150000
H       -1.91330000      -0.76580000       2.40140000
H       -1.60800000      -2.06700000       1.25050000
H       -1.38100000      -2.35150000       2.98790000
