18
Properties=species:S:1:pos:R:3 gdb_78650=T pbc="F F F"
C       -0.18340000       1.46390000       0.01850000
C        0.07430000      -0.02970000       0.01070000
C        0.93800000      -0.55130000      -1.14050000
C        2.13640000      -0.45190000      -0.27370000
N        1.21770000      -0.42310000       0.95650000
C        1.16900000      -1.90730000       0.80700000
O        0.96800000      -2.74970000       1.62390000
C        1.62020000      -1.85070000      -0.61420000
C        2.17580000      -2.92680000      -1.49680000
H        0.73780000       2.02380000      -0.16870000
H       -0.91270000       1.73000000      -0.75460000
H       -0.58100000       1.77270000       0.98920000
H       -0.84750000      -0.58280000       0.22990000
H        0.85290000      -0.38500000      -2.20920000
H        3.13200000      -0.03890000      -0.33050000
H        1.38440000      -3.60310000      -1.83570000
H        2.65530000      -2.50300000      -2.38460000
H        2.92000000      -3.52350000      -0.96090000
