16
Properties=species:S:1:pos:R:3 gdb_70920=T pbc="F F F"
O       -0.00460000       1.37000000       0.05660000
C        0.02740000      -0.00420000       0.02040000
C        0.65770000      -0.95400000      -1.13090000
C       -0.04100000      -1.86340000      -0.09750000
C        0.60650000      -0.99760000       1.04630000
N       -0.57900000      -3.17250000       0.22040000
C       -1.66420000      -2.84530000       0.81660000
O       -2.06350000      -1.52420000       0.88050000
C       -1.21980000      -0.90520000      -0.12240000
H        0.88300000       1.69630000       0.24160000
H        0.20590000      -0.88740000      -2.12290000
H        1.74860000      -0.97060000      -1.17160000
H        1.69440000      -1.05020000       1.12700000
H        0.11570000      -1.04110000       2.01870000
H       -2.33570000      -3.53210000       1.31940000
H       -1.80410000      -0.78950000      -1.03920000
