17
Properties=species:S:1:pos:R:3 gdb_52446=T pbc="F F F"
O        0.24710000       0.05400000      -0.35240000
C        0.25240000       1.24490000      -0.41120000
O        1.13260000       2.00180000       0.28030000
C        1.02340000       3.42920000       0.18460000
C        2.42230000       4.01390000       0.08920000
N        3.07080000       3.57110000      -1.13830000
C        4.41400000       4.11700000      -1.29420000
C        5.03610000       3.63770000      -2.53120000
N        5.53750000       3.24900000      -3.49610000
H       -0.43940000       1.84900000      -1.02870000
H        0.43920000       3.70330000      -0.70150000
H        0.51530000       3.80130000       1.08060000
H        2.33420000       5.10750000       0.06820000
H        2.98630000       3.75160000       1.00210000
H        3.11610000       2.55660000      -1.14100000
H        4.34730000       5.21110000      -1.34530000
H        5.09650000       3.88480000      -0.45640000
