19
Properties=species:S:1:pos:R:3 gdb_85007=T pbc="F F F"
C       -0.05970000       1.55490000       0.00970000
C        0.06420000       0.03250000       0.02270000
O        0.86510000      -0.39040000      -1.08680000
C        1.92640000      -1.12930000      -0.63380000
O        2.74970000      -1.60070000      -1.36940000
C        1.83840000      -1.21610000       0.84570000
C        2.87190000      -1.97120000       1.61320000
C        0.74930000      -0.54400000       1.24160000
C        0.20090000      -0.33860000       2.61460000
H        0.92220000       2.01870000       0.14080000
H       -0.47840000       1.88670000      -0.94340000
H       -0.72060000       1.89420000       0.81300000
H       -0.93280000      -0.41520000      -0.10150000
H        2.93280000      -3.00500000       1.25710000
H        3.86330000      -1.53270000       1.45610000
H        2.66470000      -1.98260000       2.68570000
H        0.77500000      -0.88390000       3.36660000
H        0.20740000       0.72320000       2.88920000
H       -0.84240000      -0.67200000       2.67440000
