12
Properties=species:S:1:pos:R:3 gdb_25324=T pbc="F F F"
O       -0.01940000      -0.07650000      -0.00280000
C        0.01530000       1.12970000       0.00770000
C        1.24610000       1.93070000       0.00140000
C        1.33140000       3.30440000       0.01280000
O        2.66030000       3.62990000       0.00110000
C        3.29970000       2.43190000      -0.01670000
N        2.52870000       1.40010000      -0.01750000
C        0.37870000       4.33190000       0.03260000
C       -0.45260000       5.20290000       0.04960000
H       -0.90990000       1.74430000       0.02340000
H        4.37800000       2.46690000      -0.02830000
H       -1.18690000       5.97110000       0.06460000
