17
Properties=species:S:1:pos:R:3 gdb_20824=T pbc="F F F"
C       -0.10260000       1.57470000       0.00860000
C        0.06240000       0.04510000      -0.02170000
C        0.74740000      -0.50930000       1.19200000
C        2.03190000      -0.92760000       1.33020000
O        2.27380000      -1.34780000       2.58060000
N        1.10610000      -1.21430000       3.32580000
C        0.20900000      -0.71890000       2.50570000
C       -1.18140000      -0.45950000       2.99150000
H        0.87100000       2.07020000       0.07110000
H       -0.60940000       1.92830000      -0.89460000
H       -0.69340000       1.89560000       0.87210000
H       -0.92460000      -0.42160000      -0.12940000
H        0.63000000      -0.23880000      -0.91470000
H        2.86340000      -0.98860000       0.64410000
H       -1.42020000       0.60890000       2.96270000
H       -1.91850000      -0.97570000       2.36720000
H       -1.28810000      -0.80990000       4.01980000
