19
Properties=species:S:1:pos:R:3 gdb_11108=T pbc="F F F"
C        0.07400000       1.63860000       0.06230000
C        0.42630000       0.15360000       0.18630000
C        0.60760000      -0.52020000      -1.15930000
C        0.64870000      -2.06370000      -1.20870000
C       -0.62420000      -1.91800000      -2.01190000
O       -0.63700000      -0.53110000      -1.94350000
N       -1.41370000      -2.71150000      -2.56790000
C       -2.56590000      -2.18040000      -3.28310000
H        0.87110000       2.19430000      -0.44380000
H       -0.84450000       1.76670000      -0.51710000
H       -0.07650000       2.09100000       1.04660000
H        1.35690000       0.02690000       0.75510000
H       -0.35810000      -0.37610000       0.74100000
H        1.39230000      -0.02920000      -1.74560000
H        1.48530000      -2.51010000      -1.74860000
H        0.52810000      -2.56490000      -0.24570000
H       -2.63380000      -1.08620000      -3.27670000
H       -2.53120000      -2.52380000      -4.32300000
H       -3.48150000      -2.59120000      -2.84310000
