20
Properties=species:S:1:pos:R:3 gdb_105918=T pbc="F F F"
C       -0.13840000       1.49810000      -0.02810000
C        0.13120000      -0.01220000      -0.04080000
C        0.77830000      -0.48660000      -1.30510000
C        0.07100000      -0.82170000      -2.62560000
C        0.91600000      -1.86020000      -1.89650000
C        2.12120000      -1.26620000      -2.65310000
C        1.20210000      -0.42830000      -3.60700000
C        1.85010000       0.82290000      -2.98990000
N        2.13210000      -0.00830000      -1.75890000
H        0.79360000       2.05760000      -0.15470000
H       -0.81900000       1.78730000      -0.83570000
H       -0.58810000       1.80710000       0.92020000
H        0.77520000      -0.27410000       0.80780000
H       -0.80720000      -0.56440000       0.09700000
H       -1.00190000      -0.78390000      -2.75940000
H        0.68440000      -2.84040000      -1.50220000
H        3.07020000      -1.73360000      -2.90920000
H        1.07370000      -0.60500000      -4.67490000
H        2.79880000       1.09600000      -3.46290000
H        1.24160000       1.71700000      -2.82470000
