18
Properties=species:S:1:pos:R:3 gdb_88800=T pbc="F F F"
C        0.11780000       1.49190000      -0.32350000
C       -0.08660000       0.06630000       0.11420000
O        1.03270000      -0.83760000       0.07200000
C        0.44400000      -0.55070000       1.34130000
C        1.30730000       0.09980000       2.39280000
C        2.30290000      -0.86360000       3.12200000
N        3.37830000       0.02140000       2.67940000
C        2.59040000       0.89670000       1.98590000
O        2.84110000       1.89440000       1.36310000
H        1.02050000       1.92980000       0.10420000
H        0.18770000       1.53560000      -1.41580000
H       -0.74910000       2.09320000      -0.02590000
H       -1.00190000      -0.39240000      -0.26910000
H       -0.13930000      -1.38180000       1.75010000
H        0.68800000       0.66860000       3.09370000
H        2.18940000      -0.92690000       4.20850000
H        2.34710000      -1.86940000       2.69250000
H        4.37970000      -0.01930000       2.79340000
