14
Properties=species:S:1:pos:R:3 gdb_12978=T pbc="F F F"
C       -0.07800000       1.53120000       0.02930000
C        0.13400000       0.04840000       0.02290000
O       -0.73190000      -0.77150000       0.83950000
C        0.69120000      -0.79300000       1.08680000
C        1.36600000      -1.96670000       0.43360000
C        1.21050000      -1.92190000      -0.89610000
C        0.47940000      -0.67980000      -1.28590000
O        0.22680000      -0.28670000      -2.39830000
H        0.83150000       2.05300000      -0.28420000
H       -0.87170000       1.79720000      -0.67510000
H       -0.35950000       1.87310000       1.02780000
H        1.00750000      -0.41040000       2.05190000
H        1.86280000      -2.75000000       0.99360000
H        1.53470000      -2.65610000      -1.62200000
