11
Properties=species:S:1:pos:R:3 gdb_129100=T pbc="F F F"
N       -0.09880000       1.26210000       0.68130000
C        0.26560000       0.09870000       0.33120000
C        1.45820000      -0.44340000      -0.31890000
N        1.39490000      -1.71590000      -0.47600000
O        0.16440000      -2.19130000       0.03980000
N       -1.98960000      -1.55030000      -3.40290000
N       -1.36730000      -1.07710000      -2.63110000
C       -0.57670000      -1.14170000       0.54900000
O       -1.64980000      -1.28640000       1.04170000
H        0.61200000       1.96100000       0.44510000
H        2.33580000       0.09300000      -0.65760000
