13
Properties=species:S:1:pos:R:3 gdb_131631=T pbc="F F F"
O        0.26870000       1.08300000      -0.66580000
C       -0.06690000       0.15700000       0.33670000
C       -1.41440000      -0.47340000       0.13390000
C       -2.15370000      -0.71260000      -0.99810000
N       -3.30830000      -1.35480000      -0.57650000
N       -3.31550000      -1.51370000       0.65890000
O       -2.07150000      -0.94200000       1.17920000
C       -1.86300000      -0.42250000      -2.34780000
C       -1.60450000      -0.19080000      -3.50080000
H        0.24030000       0.64210000      -1.52320000
H        0.68030000      -0.64820000       0.43500000
H       -0.07350000       0.69940000       1.28700000
H       -1.39190000       0.02140000      -4.51990000
