18
Properties=species:S:1:pos:R:3 gdb_104758=T pbc="F F F"
O        0.26660000       1.25410000      -0.49280000
C        0.08720000       0.04000000       0.20610000
C       -1.34230000      -0.47640000       0.09920000
C       -2.34330000       0.25910000       0.96260000
O       -2.32910000       1.63480000       0.57720000
C       -1.79640000      -1.00300000      -1.22790000
C       -1.60310000      -1.97160000      -0.07020000
C       -0.51760000      -2.91180000      -0.08150000
N        0.35200000      -3.67520000      -0.08520000
H       -0.44990000       1.83730000      -0.21010000
H        0.78480000      -0.68140000      -0.22960000
H        0.35180000       0.13990000       1.27250000
H       -3.34950000      -0.16840000       0.83480000
H       -2.06350000       0.15210000       2.02110000
H       -2.77830000       2.15040000       1.25360000
H       -2.81750000      -0.82370000      -1.54550000
H       -1.06650000      -1.03070000      -2.02800000
H       -2.50360000      -2.36120000       0.39510000
