17
Properties=species:S:1:pos:R:3 gdb_30076=T pbc="F F F"
C        0.03410000       1.44990000       0.15250000
N        0.04000000      -0.00300000       0.08190000
C        0.00270000      -0.75360000      -1.07270000
C       -0.05280000      -2.06100000      -0.66920000
N       -0.05750000      -2.13900000       0.70120000
C       -0.01320000      -0.89180000       1.12560000
C        0.03330000      -0.47720000       2.56620000
C        1.45690000      -0.08430000       2.93580000
O        1.82670000       1.05280000       3.08870000
H        0.54070000       1.78240000       1.05950000
H        0.56820000       1.85370000      -0.71010000
H       -0.98860000       1.84300000       0.14740000
H        0.01820000      -0.28840000      -2.04480000
H       -0.08660000      -2.94670000      -1.28510000
H       -0.63220000       0.36340000       2.78270000
H       -0.26960000      -1.34610000       3.15660000
H        2.16370000      -0.93830000       3.01330000
