17
Properties=species:S:1:pos:R:3 gdb_38673=T pbc="F F F"
C        0.02700000       1.45360000       0.06590000
C        1.33480000       0.69510000      -0.01350000
O        1.67410000       0.11600000       1.24870000
C        0.45820000      -0.71430000       1.21820000
C        0.77520000      -2.15020000       0.96070000
C        0.50410000      -2.70090000      -0.22180000
C       -0.14240000      -1.97220000      -1.36690000
O       -0.70310000      -0.70380000      -1.03390000
C        0.00410000      -0.03490000      -0.06550000
H       -0.27330000       1.94940000       0.98580000
H       -0.23560000       1.97110000      -0.85250000
H        2.12990000       0.89110000      -0.72220000
H       -0.13850000      -0.56030000       2.12520000
H        1.25840000      -2.71670000       1.75120000
H        0.76840000      -3.73570000      -0.42700000
H        0.59720000      -1.84770000      -2.17640000
H       -0.96760000      -2.56380000      -1.77960000
