21
Properties=species:S:1:pos:R:3 gdb_104367=T pbc="F F F"
C       -0.32460000       1.33270000       0.16020000
C       -0.10220000      -0.15170000      -0.13800000
C        0.92330000      -0.42220000      -1.27070000
O        2.15080000       0.21180000      -0.98380000
C        1.07790000      -1.92770000      -1.54390000
C       -0.13110000      -2.29300000      -2.44140000
C       -0.36990000      -1.04530000      -3.32170000
C        0.37330000       0.08200000      -2.61370000
O        0.60560000       1.18710000      -3.04270000
H        0.61730000       1.80920000       0.44400000
H       -0.72490000       1.86810000      -0.70600000
H       -1.02910000       1.45590000       0.98790000
H        0.28670000      -0.65410000       0.75590000
H       -1.05650000      -0.63690000      -0.37720000
H        2.14330000       1.03870000      -1.48860000
H        2.01950000      -2.07880000      -2.08290000
H        1.12000000      -2.52210000      -0.62750000
H        0.05790000      -3.18960000      -3.03560000
H       -1.01130000      -2.50140000      -1.82620000
H        0.06120000      -1.14590000      -4.32370000
H       -1.42450000      -0.78990000      -3.46330000
