14
Properties=species:S:1:pos:R:3 gdb_18659=T pbc="F F F"
O        0.06840000      -0.01430000       0.14170000
C       -0.00370000       1.18760000       0.02950000
C       -1.33090000       1.93140000      -0.08100000
C       -1.30700000       3.03990000      -1.10520000
C       -0.18010000       3.64580000      -1.47910000
C        1.12220000       3.28870000      -0.86100000
O        1.17130000       3.31840000       0.57200000
C        1.22800000       2.03860000      -0.06130000
H       -2.11190000       1.19610000      -0.29010000
H       -1.55330000       2.35860000       0.90860000
H       -2.26070000       3.34190000      -1.52770000
H       -0.18480000       4.43620000      -2.22240000
H        2.02820000       3.65500000      -1.33930000
H        2.17300000       1.50510000       0.01300000
