19
Properties=species:S:1:pos:R:3 gdb_107957=T pbc="F F F"
C        0.02210000       1.47530000       0.02350000
C        0.03320000      -0.02070000      -0.10310000
C        0.63480000      -0.93730000      -1.19610000
C        0.02370000      -1.95050000      -0.20490000
C        0.37000000      -1.06230000       1.02040000
O       -0.97730000      -1.07640000       1.58360000
C       -1.17330000      -1.00300000       0.12690000
C       -2.59330000      -1.01540000      -0.34700000
O       -3.25940000      -2.18800000       0.08580000
H        1.04080000       1.87560000       0.06540000
H       -0.48520000       1.94500000      -0.82610000
H       -0.49890000       1.77080000       0.94020000
H        0.17760000      -0.88300000      -2.18850000
H        1.72530000      -0.93750000      -1.28270000
H       -0.00220000      -3.03860000      -0.23550000
H        1.21920000      -1.10500000       1.70260000
H       -3.10120000      -0.10530000       0.01140000
H       -2.62520000      -1.00710000      -1.44190000
H       -3.04950000      -2.28820000       1.02210000
