20
Properties=species:S:1:pos:R:3 gdb_59316=T pbc="F F F"
C        0.08740000       1.59100000      -0.06400000
C        0.05430000       0.06140000      -0.00710000
O        0.75800000      -0.44180000       1.11960000
C       -1.36240000      -0.51450000       0.05710000
C       -1.47540000      -2.06470000       0.16840000
C       -2.19730000      -1.80000000       1.50550000
O       -2.71420000      -2.45820000       2.37100000
N       -2.05580000      -0.44300000       1.35130000
C       -2.45950000       0.63700000       2.21320000
H        1.11950000       1.94890000      -0.15100000
H       -0.46380000       1.96270000      -0.93410000
H       -0.34660000       2.03070000       0.83790000
H        0.49710000      -0.32720000      -0.94090000
H        1.66930000      -0.13830000       1.06630000
H       -1.95220000      -0.08590000      -0.76420000
H       -2.08480000      -2.55400000      -0.59330000
H       -0.51950000      -2.57710000       0.28080000
H       -3.09640000       0.20920000       2.99190000
H       -1.60140000       1.12190000       2.69330000
H       -3.03230000       1.39370000       1.66390000
