16
Properties=species:S:1:pos:R:3 gdb_71541=T pbc="F F F"
O        0.11080000       1.32240000      -0.13010000
C        0.09380000      -0.04230000      -0.10970000
C        0.60630000      -0.96380000      -1.21640000
C        0.07590000      -1.93550000      -0.13500000
C        0.53130000      -1.01520000       1.04200000
N       -0.80870000      -0.91720000       1.70670000
C       -1.13510000      -0.99940000       0.23650000
C       -2.45570000      -0.99850000      -0.30360000
C       -3.56480000      -0.99170000      -0.77100000
H       -0.28930000       1.63080000       0.69380000
H        0.05950000      -0.93980000      -2.16210000
H        1.68660000      -0.96500000      -1.38430000
H        0.05120000      -3.02340000      -0.13660000
H        1.47290000      -1.03460000       1.58980000
H       -1.04940000      -1.79890000       2.16820000
H       -4.54400000      -0.98190000      -1.18170000
