23
Properties=species:S:1:pos:R:3 gdb_110315=T pbc="F F F"
C       -0.66960000       1.40900000      -0.76980000
C       -0.34230000      -0.07980000      -0.94570000
C       -1.58040000      -0.94910000      -0.81530000
C       -1.68350000      -2.46410000      -0.70000000
C       -0.63000000      -3.11790000       0.21000000
C        0.82050000      -3.26040000      -0.23980000
C       -1.02550000      -2.11880000       1.35370000
C       -2.12990000      -1.55510000       0.44350000
O       -3.43100000      -1.34340000       0.87740000
H        0.22360000       2.03100000      -0.88410000
H       -1.40510000       1.74290000      -1.51030000
H       -1.08830000       1.60620000       0.22350000
H        0.11480000      -0.23920000      -1.93090000
H        0.41310000      -0.36740000      -0.20890000
H       -2.40350000      -0.59030000      -1.43510000
H       -2.30070000      -3.01020000      -1.40510000
H       -0.99920000      -4.11070000       0.48940000
H        1.26780000      -2.30690000      -0.53040000
H        1.43460000      -3.68680000       0.56170000
H        0.89160000      -3.93320000      -1.10190000
H       -1.43760000      -2.62500000       2.22900000
H       -0.25620000      -1.41380000       1.68730000
H       -3.51710000      -0.41970000       1.13640000
