19
Properties=species:S:1:pos:R:3 gdb_81130=T pbc="F F F"
C       -0.05300000       1.46120000      -0.27850000
N       -0.02670000       0.02270000      -0.01590000
C       -1.03180000      -0.55030000       0.97110000
C       -0.09880000      -1.78420000       1.04890000
C        0.78190000      -0.51110000       1.16140000
C        2.29820000      -0.46620000       1.19680000
C        2.83260000       0.87980000       1.40110000
N        3.23910000       1.94830000       1.56960000
C       -0.25560000       0.05690000       2.17500000
H        0.87150000       1.74080000      -0.79210000
H       -0.88450000       1.66140000      -0.96220000
H       -0.16240000       2.12220000       0.59300000
H       -2.10310000      -0.52900000       0.77080000
H       -0.17610000      -2.41140000       1.93860000
H        0.01080000      -2.34810000       0.12210000
H        2.66300000      -1.11140000       2.00430000
H        2.69140000      -0.86940000       0.25650000
H       -0.28670000       1.13710000       2.30710000
H       -0.34290000      -0.45490000       3.13730000
