16
Properties=species:S:1:pos:R:3 gdb_48392=T pbc="F F F"
O       -0.11400000       0.02920000      -0.17300000
C        0.00040000       1.22010000      -0.08620000
C        1.33850000       1.95970000      -0.04960000
C        2.58720000       1.15290000      -0.57850000
C        2.69500000       2.15540000      -1.73160000
N        1.40560000       2.10800000      -2.46150000
C        1.53270000       2.93950000      -1.24450000
C        1.50270000       2.58180000       1.24920000
C        1.59960000       3.09730000       2.33170000
H       -0.88120000       1.89470000      -0.01710000
H        3.42220000       1.20280000       0.11990000
H        2.37260000       0.11960000      -0.85390000
H        3.59610000       2.50040000      -2.22170000
H        1.48030000       2.73520000      -3.26170000
H        1.33460000       4.00330000      -1.24160000
H        1.69830000       3.54820000       3.28820000
