14
Properties=species:S:1:pos:R:3 gdb_5406=T pbc="F F F"
C       -0.02040000       1.40860000       0.01930000
O        0.01400000      -0.02130000      -0.02100000
C        0.61430000      -0.59230000      -1.07100000
N        1.14860000       0.16330000      -2.02320000
C        1.72860000      -0.49070000      -3.03640000
N        1.83080000      -1.80330000      -3.19800000
C        1.28060000      -2.54290000      -2.21820000
C        0.65290000      -1.99390000      -1.11970000
H        0.99050000       1.82410000       0.03140000
H       -0.55350000       1.81180000      -0.84560000
H       -0.54610000       1.65770000       0.94150000
H        2.16510000       0.13250000      -3.81400000
H        1.35290000      -3.62200000      -2.33060000
H        0.21150000      -2.59250000      -0.33350000
