20
Properties=species:S:1:pos:R:3 gdb_41976=T pbc="F F F"
C        0.00470000       1.57380000       0.04490000
C        1.46760000       2.01110000      -0.19190000
N        2.11910000       0.91060000      -0.94450000
C        2.57920000      -0.25840000      -0.17790000
C        2.66240000      -0.33940000       1.33440000
O        1.48530000       0.03840000       2.02670000
C        0.30800000      -0.52220000       1.46950000
C        0.05800000       0.02480000       0.06080000
C        1.25350000      -0.27920000      -0.85090000
H       -0.41880000       1.99140000       0.96300000
H       -0.61890000       1.90820000      -0.79040000
H        1.52830000       2.91720000      -0.80200000
H        1.98490000       2.21120000       0.75040000
H        3.41690000      -0.76560000      -0.65610000
H        2.93360000      -1.37940000       1.58830000
H        3.45760000       0.30920000       1.71950000
H        0.37390000      -1.62330000       1.44830000
H       -0.50370000      -0.24400000       2.14930000
H       -0.86060000      -0.41920000      -0.33410000
H        1.09100000      -0.84480000      -1.76460000
