20
Properties=species:S:1:pos:R:3 gdb_87234=T pbc="F F F"
C       -0.06360000       1.50950000      -0.14450000
C        0.04100000       0.00870000       0.00140000
C        1.39230000      -0.68260000      -0.07320000
C        0.64080000      -0.61400000       1.23540000
O        1.10730000       0.28220000       2.21630000
C        0.00650000      -1.86230000       1.81700000
C        1.01130000      -2.67960000       2.65650000
C        0.42220000      -3.88920000       3.22300000
N       -0.05890000      -4.84470000       3.66030000
H        0.74840000       2.00960000       0.38770000
H       -0.02230000       1.80290000      -1.19870000
H       -1.00710000       1.87900000       0.27070000
H       -0.78620000      -0.54750000      -0.43310000
H        1.47230000      -1.63510000      -0.58730000
H        2.26290000      -0.04140000      -0.17450000
H        2.04120000       0.10910000       2.36900000
H       -0.83830000      -1.57570000       2.45250000
H       -0.39020000      -2.48690000       1.01080000
H        1.87300000      -2.96690000       2.04210000
H        1.39030000      -2.05910000       3.47580000
