19
Properties=species:S:1:pos:R:3 gdb_85560=T pbc="F F F"
C        0.40740000       1.40090000      -0.29340000
C       -0.05150000       0.00850000       0.15430000
O       -0.00120000      -0.87520000      -0.98540000
C        1.00530000      -1.74710000      -1.21450000
O        1.01870000      -2.37290000      -2.23950000
C        2.07140000      -1.90470000      -0.14140000
C        1.67700000      -1.38440000       1.20750000
C        0.69660000      -0.49900000       1.36240000
C        0.27190000       0.05170000       2.69520000
H        1.47290000       1.39300000      -0.54180000
H       -0.15710000       1.71210000      -1.17600000
H        0.24480000       2.13610000       0.49990000
H       -1.12120000       0.05530000       0.39340000
H        2.32700000      -2.96830000      -0.11210000
H        2.97730000      -1.40230000      -0.51130000
H        2.22710000      -1.75380000       2.06930000
H        0.87720000      -0.36610000       3.50340000
H        0.36720000       1.14360000       2.73420000
H       -0.78060000      -0.17890000       2.90230000
