14
Properties=species:S:1:pos:R:3 gdb_9439=T pbc="F F F"
C       -0.06210000       1.54850000       0.02430000
C       -0.04270000       0.01730000      -0.01470000
C        0.74830000      -0.64380000      -1.19930000
N        1.70000000      -1.14010000      -0.20520000
C        1.08410000      -0.61580000       0.89630000
O        1.32720000      -0.60670000       2.06720000
C       -1.36210000      -0.55520000       0.20350000
N       -2.41260000      -1.00810000       0.37110000
H        0.94200000       1.93930000      -0.16280000
H       -0.74460000       1.95170000      -0.72840000
H       -0.38680000       1.89180000       1.00940000
H        0.20660000      -1.42610000      -1.73630000
H        1.16720000       0.07890000      -1.90580000
H        2.55850000      -1.66250000      -0.29700000
