20
Properties=species:S:1:pos:R:3 gdb_13659=T pbc="F F F"
C        0.01690000       1.53900000      -0.24390000
C        0.02460000       0.04210000      -0.01900000
C        1.31230000      -0.74670000      -0.03790000
C        0.53340000      -0.60260000       1.25170000
C        1.09220000       0.18550000       2.41690000
C        2.05570000      -0.66480000       3.27510000
C        2.60650000       0.06680000       4.40900000
C        3.04600000       0.69590000       5.33450000
H        0.91220000       2.02070000       0.15890000
H       -0.02000000       1.76680000      -1.31490000
H       -0.85370000       2.01110000       0.22560000
H       -0.83040000      -0.46310000      -0.46210000
H        1.33830000      -1.70940000      -0.53680000
H        2.23570000      -0.18020000      -0.12380000
H       -0.01680000      -1.48970000       1.56030000
H        1.62970000       1.07170000       2.06580000
H        0.27900000       0.55000000       3.05610000
H        1.52900000      -1.55770000       3.63720000
H        2.87190000      -1.03280000       2.64070000
H        3.44070000       1.23980000       6.15630000
