18
Properties=species:S:1:pos:R:3 gdb_56778=T pbc="F F F"
O       -0.21800000       1.36030000       0.11000000
C       -0.03600000      -0.03170000      -0.05010000
C        0.76100000      -0.36590000      -1.24380000
C        1.43250000      -0.64580000      -2.20080000
C        0.61810000      -0.62160000       1.18430000
C        0.84890000      -2.10140000       1.51730000
C        0.66830000      -1.74750000       3.03410000
C        0.43940000      -0.28200000       2.63630000
N        1.57640000       0.23460000       1.87250000
H        0.58750000       1.66830000       0.55380000
H       -1.03740000      -0.46600000      -0.16700000
H        2.01360000      -0.88300000      -3.05760000
H        0.05320000      -2.75330000       1.14890000
H        1.81170000      -2.51220000       1.19900000
H       -0.21520000      -2.22050000       3.46820000
H        1.52230000      -1.92850000       3.69500000
H       -0.21610000       0.43610000       3.11450000
H        2.45950000      -0.22460000       2.08710000
