17
Properties=species:S:1:pos:R:3 gdb_131195=T pbc="F F F"
O        0.10850000       1.33510000       0.25340000
C        0.08010000       0.00940000      -0.01880000
C        0.07470000      -0.75180000      -1.16490000
C        0.05870000      -0.70250000      -2.66410000
C        0.40880000      -2.18620000      -3.02700000
C        0.00350000      -3.07190000      -1.80760000
C        0.04630000      -2.07750000      -0.68410000
N        0.03890000      -2.17430000       0.63370000
N        0.05620000      -0.86190000       1.02470000
H        0.11910000       1.81640000      -0.57940000
H       -0.93010000      -0.42720000      -3.05610000
H        0.77790000      -0.00570000      -3.10920000
H       -0.06820000      -2.50750000      -3.95640000
H        1.49070000      -2.26230000      -3.17470000
H       -1.00840000      -3.47860000      -1.93060000
H        0.67550000      -3.92370000      -1.67050000
H        0.09440000      -0.62690000       2.00180000
