19
Properties=species:S:1:pos:R:3 gdb_81124=T pbc="F F F"
C        0.66410000       1.65580000       0.74630000
C        0.21170000       0.25850000       0.35750000
C        0.81020000      -0.53980000      -0.83510000
C        2.11020000      -0.80490000      -0.04260000
C        0.88810000      -1.04880000       0.87970000
C        0.81680000      -1.70380000       2.24020000
C        1.49180000      -0.92280000       3.26960000
C        2.05530000      -0.26660000       4.10380000
O        0.23960000      -1.77370000      -0.24110000
H        1.74880000       1.78250000       0.71600000
H        0.22160000       2.39770000       0.07250000
H        0.33330000       1.89300000       1.76230000
H       -0.87780000       0.16270000       0.38080000
H        0.67120000      -0.39420000      -1.90640000
H        2.64340000      -1.71050000      -0.33520000
H        2.78140000       0.02600000       0.17770000
H       -0.23900000      -1.84830000       2.50180000
H        1.26210000      -2.70420000       2.16910000
H        2.55090000       0.30530000       4.84860000
