17
Properties=species:S:1:pos:R:3 gdb_23567=T pbc="F F F"
O       -0.11320000       1.35810000      -0.09580000
N        0.04560000      -0.04720000      -0.03480000
C       -1.06380000      -0.62250000       0.12890000
C       -2.54840000      -0.29030000       0.08380000
C       -2.59330000      -1.52400000      -0.90650000
C       -1.46320000      -2.08130000       0.05110000
C       -2.28230000      -2.24510000       1.34970000
N       -1.98930000      -1.21930000       2.37790000
C       -3.04980000      -0.97440000       1.37230000
H        0.79800000       1.65330000      -0.19420000
H       -2.91770000       0.69690000      -0.17860000
H       -3.52930000      -2.08900000      -0.93830000
H       -2.23570000      -1.29000000      -1.91070000
H       -0.76720000      -2.86260000      -0.24450000
H       -2.69610000      -3.20590000       1.63110000
H       -2.42630000      -1.49870000       3.25500000
H       -4.08770000      -0.90090000       1.67410000
