16
Properties=species:S:1:pos:R:3 gdb_10029=T pbc="F F F"
C        0.01540000       1.44570000      -0.02400000
C       -0.00330000      -0.00930000       0.01160000
C       -0.00860000      -1.21310000       0.05770000
C       -0.03530000      -2.67040000       0.05460000
C       -1.48650000      -3.20150000      -0.06310000
O       -1.53370000      -4.60680000      -0.18770000
C        0.79100000      -3.19470000      -1.12540000
O        1.74880000      -3.90870000      -1.01510000
H        0.86260000       1.81590000      -0.61150000
H       -0.90070000       1.84500000      -0.47240000
H        0.10260000       1.86440000       0.98440000
H        0.42560000      -3.07070000       0.96690000
H       -2.06920000      -2.83190000       0.79210000
H       -1.94520000      -2.79920000      -0.97170000
H       -1.16070000      -4.99800000       0.60930000
H        0.42310000      -2.84500000      -2.11560000
