13
Properties=species:S:1:pos:R:3 gdb_2808=T pbc="F F F"
C       -0.13960000      -1.21350000      -0.00440000
C       -0.06400000      -0.01380000       0.01890000
C        0.00410000       1.41580000       0.03300000
C        0.48870000       2.15630000       1.25970000
C        1.36100000       2.14570000       0.02390000
C        2.59120000       1.41460000       0.00110000
C        3.63350000       0.81600000      -0.02930000
H       -0.19760000      -2.27340000      -0.02280000
H       -0.76750000       1.91410000      -0.54670000
H       -0.00830000       3.08350000       1.52040000
H        0.81830000       1.55400000       2.09680000
H        1.36430000       3.06090000      -0.56090000
H        4.54940000       0.27980000      -0.05430000
