18
Properties=species:S:1:pos:R:3 gdb_53941=T pbc="F F F"
C       -0.07420000       1.72240000       0.49350000
C       -0.35930000       0.25920000       0.68860000
N        0.55930000      -0.39240000       1.54370000
C       -1.44480000      -0.37750000       0.20200000
N       -2.59130000       0.25680000      -0.34750000
N       -1.56780000      -1.79500000       0.37030000
H       -2.50750000      -2.02100000       0.68560000
H       -1.43070000      -2.27620000      -0.51590000
C        0.99550000      -1.07960000      -1.95370000
O        1.93130000      -0.54050000      -1.52330000
O        0.08280000      -1.63410000      -2.41760000
H        0.98410000       1.87040000       0.24210000
H       -0.66160000       2.15840000      -0.31820000
H       -0.26440000       2.29710000       1.40800000
H        0.34400000      -1.38240000       1.59210000
H        1.52130000      -0.26010000       1.25010000
H       -2.51920000       1.26610000      -0.37070000
H       -2.80610000      -0.08120000      -1.28180000
