19
Properties=species:S:1:pos:R:3 gdb_63727=T pbc="F F F"
C       -0.12700000       1.57570000       0.05430000
C        0.05780000       0.06430000       0.01170000
O       -1.18940000      -0.59440000      -0.13940000
C        1.15170000      -0.51810000      -0.95590000
C        1.79450000      -1.24570000       0.22470000
C        2.19640000      -0.26220000       1.30360000
C        0.75740000      -0.61270000       1.20120000
C        2.24410000      -2.63920000       0.23140000
O        2.30310000      -3.34750000      -0.74650000
H        0.81600000       2.09850000       0.23820000
H       -0.52040000       1.93790000      -0.90370000
H       -0.83770000       1.84760000       0.84040000
H       -1.58260000      -0.29920000      -0.96800000
H        0.71280000      -1.21240000      -1.67370000
H        1.79120000       0.20040000      -1.47800000
H        2.71820000      -0.69150000       2.15390000
H        2.56800000       0.71330000       1.00130000
H        0.21760000      -1.11380000       1.99560000
H        2.52520000      -3.02130000       1.24150000
