11
Properties=species:S:1:pos:R:3 gdb_21336=T pbc="F F F"
N       -0.08380000      -1.12320000       0.34390000
C       -0.02510000       0.00580000       0.11120000
C        0.03240000       1.43770000      -0.18860000
C        1.42410000       1.99210000      -0.15620000
N        2.05310000       2.59700000      -1.11600000
C        3.24960000       2.90040000      -0.50890000
N        3.35790000       2.51440000       0.73160000
O        2.12360000       1.89950000       0.97770000
H       -0.37420000       1.62220000      -1.18590000
H       -0.59500000       1.97390000       0.53330000
H        4.05470000       3.41990000      -1.00740000
