12
Properties=species:S:1:pos:R:3 gdb_5349=T pbc="F F F"
N       -0.00120000      -1.16060000      -0.00290000
C       -0.00030000      -0.00300000       0.00300000
C       -0.00370000       1.42560000       0.01040000
C       -1.21580000       2.13260000       0.03010000
N       -1.28810000       3.46030000       0.03790000
C       -0.13850000       4.14210000       0.02620000
C        1.11800000       3.53950000       0.00650000
C        1.19090000       2.15470000      -0.00160000
H       -2.15610000       1.58850000       0.03970000
H       -0.22680000       5.22550000       0.03300000
H        2.01680000       4.14490000      -0.00230000
H        2.14360000       1.63830000      -0.01690000
