15
Properties=species:S:1:pos:R:3 gdb_114933=T pbc="F F F"
C       -0.11520000       1.42420000       0.06100000
O       -0.03280000       0.00320000       0.04170000
C        0.73140000      -0.53930000       1.04980000
C        0.70250000      -2.07740000       0.95060000
N        2.02330000      -2.46470000       0.43950000
C        2.70400000      -1.39310000       0.43200000
O        2.14770000      -0.22890000       0.85360000
C        4.07470000      -1.30520000       0.01150000
N        5.17780000      -1.22440000      -0.32120000
H        0.86260000       1.88100000      -0.12480000
H       -0.80750000       1.70810000      -0.73280000
H       -0.50220000       1.78200000       1.02540000
H        0.47230000      -0.11710000       2.02850000
H        0.53300000      -2.55740000       1.91950000
H       -0.08510000      -2.39570000       0.26330000
