17
Properties=species:S:1:pos:R:3 gdb_50819=T pbc="F F F"
N       -0.06880000       0.56630000      -2.25230000
C       -0.11180000       0.12980000      -1.05700000
N       -1.35070000       0.30210000      -0.41120000
C       -1.76330000      -0.09120000       0.83560000
O       -1.09880000      -0.66360000       1.66910000
C        0.98040000      -0.54820000      -0.27070000
C        2.42010000      -0.52300000      -0.82980000
O        2.92250000       0.10500000       0.36050000
C        1.60230000       0.20750000       0.93360000
H        0.84680000       0.41210000      -2.66850000
H       -2.03130000       0.76330000      -1.00110000
H       -2.82160000       0.18670000       1.00130000
H        0.64150000      -1.54420000       0.01720000
H        2.87580000      -1.50360000      -1.00840000
H        2.58120000       0.10530000      -1.71670000
H        1.28220000       1.25080000       1.04390000
H        1.51930000      -0.30200000       1.89550000
