16
Properties=species:S:1:pos:R:3 gdb_49929=T pbc="F F F"
O       -0.09360000      -0.04740000       0.41840000
C       -0.02610000       1.15260000       0.25790000
N        1.13190000       1.84630000       0.05440000
C        1.23120000       3.29100000      -0.20210000
C        2.76710000       3.58220000      -0.11580000
C        3.36540000       2.17910000      -0.16280000
C        2.40440000       1.26640000      -0.03320000
C        3.23490000       4.47980000      -1.16590000
C        3.61870000       5.21830000      -2.03280000
H       -0.90910000       1.82050000       0.26600000
H        0.86050000       3.52830000      -1.20440000
H        0.65640000       3.86250000       0.52930000
H        3.00240000       4.04360000       0.85470000
H        4.42420000       1.98890000      -0.24680000
H        2.46790000       0.19020000       0.02320000
H        3.96180000       5.86970000      -2.79820000
