17
Properties=species:S:1:pos:R:3 gdb_73476=T pbc="F F F"
O        0.00840000       1.34860000       0.02130000
C        0.03390000      -0.04590000       0.04450000
C        1.16700000      -0.68720000      -0.74390000
O        1.16300000      -2.11570000      -0.64390000
C        0.06510000      -2.61840000       0.07980000
C       -1.26070000      -2.13770000      -0.54490000
C       -1.31650000      -0.72650000       0.01410000
C       -0.45700000      -0.78820000       1.26060000
O        0.06050000      -2.09580000       1.40210000
H        0.73140000       1.67110000       0.57230000
H        1.09610000      -0.39140000      -1.79990000
H        2.13230000      -0.32470000      -0.36260000
H        0.20400000      -3.69740000       0.13860000
H       -1.21840000      -2.19900000      -1.63470000
H       -2.10470000      -2.73410000      -0.18500000
H       -2.21120000      -0.11930000      -0.03220000
H       -0.68690000      -0.29730000       2.19760000
