16
Properties=species:S:1:pos:R:3 gdb_42737=T pbc="F F F"
O       -0.02600000       0.05460000      -0.00390000
C       -0.07770000       1.24760000       0.02490000
C       -1.26320000       2.18980000       0.04220000
C       -0.78830000       3.25950000      -0.99990000
C        0.29280000       3.56190000       0.07440000
C       -0.79590000       3.21780000       1.13000000
C        1.13480000       2.26100000       0.03500000
C        2.03110000       2.07190000       1.16350000
N        2.73130000       1.93640000       2.07350000
H       -2.24850000       1.73090000       0.02860000
H       -0.46760000       2.91760000      -1.98790000
H       -1.51300000       4.06960000      -1.09650000
H        0.84640000       4.49850000       0.09560000
H       -1.52270000       4.02240000       1.25320000
H       -0.47750000       2.83930000       2.10400000
H        1.70110000       2.15410000      -0.89650000
