17
Properties=species:S:1:pos:R:3 gdb_28231=T pbc="F F F"
N        0.16040000       1.38980000      -0.12940000
C       -0.01820000      -0.00860000      -0.04410000
C       -1.13890000      -0.81820000       0.00500000
C       -0.66220000      -2.15900000       0.01770000
C        0.69990000      -2.12170000      -0.01630000
C        1.29630000      -3.48660000       0.03130000
O        0.14380000      -4.33730000       0.06690000
C       -1.09100000      -3.58950000       0.08300000
N        1.10630000      -0.81690000      -0.05400000
H        0.24350000       1.82540000       0.78520000
H       -0.62380000       1.82390000      -0.60110000
H       -2.15930000      -0.46770000       0.04250000
H        1.90700000      -3.74150000      -0.84950000
H        1.91800000      -3.66840000       0.92330000
H       -1.64680000      -3.84240000       0.99850000
H       -1.70480000      -3.90860000      -0.77220000
H        2.03860000      -0.45950000      -0.17290000
