21
Properties=species:S:1:pos:R:3 gdb_104667=T pbc="F F F"
C       -0.16980000       1.35000000      -0.96970000
C       -0.02620000       0.12900000      -0.05420000
C       -1.35770000      -0.52500000       0.25300000
O       -2.29960000       0.26670000       0.93290000
C       -1.98770000       0.50810000       2.29340000
C       -2.03390000      -1.41200000      -0.75800000
O       -1.31840000      -1.67850000      -1.94040000
C       -1.46340000      -2.02520000       0.50810000
O       -0.34710000      -2.85000000       0.37630000
H        0.79450000       1.84630000      -1.11650000
H       -0.55340000       1.05180000      -1.94970000
H       -0.86670000       2.07690000      -0.54240000
H        0.63700000      -0.61150000      -0.50710000
H        0.45130000       0.41610000       0.89080000
H       -2.85730000       1.00320000       2.73230000
H       -1.79290000      -0.42640000       2.83750000
H       -1.11540000       1.16510000       2.40970000
H       -3.10940000      -1.29740000      -0.86700000
H       -1.75050000      -2.41660000      -2.38390000
H       -2.14990000      -2.35840000       1.28120000
H       -0.14330000      -2.87160000      -0.56930000
