15
Properties=species:S:1:pos:R:3 gdb_97495=T pbc="F F F"
C        0.43310000       1.37690000       0.02140000
C        0.30630000      -0.12430000       0.06450000
O        0.19400000      -0.77780000       1.07230000
C        0.32460000      -0.82990000      -1.31470000
O        0.41180000      -0.18320000      -2.33800000
C        0.22970000      -2.26550000      -1.28180000
C        0.16220000      -3.47180000      -1.27370000
C        0.04580000      -4.92690000      -1.30170000
O        0.30080000      -5.50180000      -2.56910000
H        1.37070000       1.65940000      -0.46810000
H       -0.36870000       1.80460000      -0.58860000
H        0.39770000       1.77610000       1.03510000
H        0.77850000      -5.36410000      -0.61410000
H       -0.94930000      -5.20090000      -0.91400000
H       -0.27620000      -5.07490000      -3.21140000
