20
Properties=species:S:1:pos:R:3 gdb_80831=T pbc="F F F"
C       -0.16560000       1.55860000      -0.02780000
C       -0.00120000       0.04550000      -0.00640000
C        1.14480000      -0.59850000      -0.84220000
C        2.11940000      -0.23960000       0.31480000
C        0.84090000      -0.58380000       1.17670000
C        0.67260000      -0.23710000       2.63250000
C        0.74540000      -2.07500000       0.79980000
O        0.65310000      -3.04400000       1.51180000
N        0.84630000      -2.02760000      -0.59210000
H        0.76920000       2.10290000       0.12960000
H       -0.57850000       1.88160000      -0.98970000
H       -0.86670000       1.87510000       0.75150000
H       -0.97130000      -0.43340000      -0.17340000
H        1.32520000      -0.36290000      -1.89020000
H        3.00080000      -0.87500000       0.43950000
H        2.40570000       0.81150000       0.36790000
H        0.78040000       0.83800000       2.80580000
H       -0.31390000      -0.54660000       2.99270000
H        1.41720000      -0.76060000       3.24010000
H        1.34960000      -2.76150000      -1.07030000
