25
Properties=species:S:1:pos:R:3 gdb_122004=T pbc="F F F"
C       -0.01670000       1.59760000       0.10030000
C       -0.00230000       0.06800000       0.04630000
C       -1.40500000      -0.54390000      -0.02590000
C       -1.40720000      -2.07730000      -0.01800000
O       -0.75490000      -2.59680000       1.14400000
C       -2.81820000      -2.65520000      -0.17100000
C       -2.83650000      -4.17690000      -0.23140000
O       -4.17850000      -4.60280000      -0.34370000
C       -4.30400000      -6.00210000      -0.39420000
H        0.99830000       2.00410000       0.14980000
H       -0.50260000       2.02380000      -0.78470000
H       -0.56200000       1.95880000       0.97970000
H        0.57790000      -0.26370000      -0.82510000
H        0.51380000      -0.33610000       0.92360000
H       -2.00960000      -0.18760000       0.82270000
H       -1.91980000      -0.19340000      -0.93030000
H       -0.78410000      -2.43330000      -0.85000000
H       -1.25890000      -2.30380000       1.91230000
H       -3.44380000      -2.32640000       0.67030000
H       -3.28360000      -2.25590000      -1.07970000
H       -2.24730000      -4.53200000      -1.09570000
H       -2.36650000      -4.59810000       0.67060000
H       -5.36900000      -6.23460000      -0.47430000
H       -3.78140000      -6.43020000      -1.26500000
H       -3.90270000      -6.48360000       0.51220000
