20
Properties=species:S:1:pos:R:3 gdb_32208=T pbc="F F F"
C       -0.12380000       1.59290000      -0.00760000
C       -0.01390000       0.05680000      -0.00500000
C        0.71700000      -0.47670000      -1.21570000
C        0.00890000      -0.80470000      -2.37250000
C        0.68570000      -1.26520000      -3.49560000
N        2.01010000      -1.42330000      -3.53780000
C        2.68270000      -1.11340000      -2.42840000
C        2.11270000      -0.63920000      -1.24360000
C        2.99340000      -0.33730000      -0.05680000
H        0.86340000       2.06480000      -0.01620000
H       -0.66410000       1.94240000      -0.89270000
H       -0.65910000       1.94470000       0.87970000
H        0.48670000      -0.26910000       0.91260000
H       -1.02180000      -0.37190000       0.02030000
H       -1.07230000      -0.70400000      -2.39570000
H        0.13890000      -1.52260000      -4.39990000
H        3.76210000      -1.25170000      -2.47470000
H        2.90400000       0.70440000       0.26990000
H        2.74260000      -0.96490000       0.80640000
H        4.04360000      -0.51810000      -0.30110000
