24
Properties=species:S:1:pos:R:3 gdb_105251=T pbc="F F F"
C       -1.50880000       0.53390000      -0.32200000
C       -1.26400000      -0.61120000      -1.31690000
C        0.14690000      -0.65830000      -1.89970000
C        1.32540000      -0.78670000      -0.95690000
C        0.97190000      -1.93150000      -1.87630000
C        0.47920000      -3.25530000      -1.33680000
N        0.45980000       0.13820000      -3.07830000
C       -0.34410000      -0.00460000      -4.28430000
C       -0.36100000       1.26370000      -3.50130000
H       -0.87010000       0.42840000       0.56010000
H       -1.29490000       1.51330000      -0.75890000
H       -2.54970000       0.53780000       0.01790000
H       -1.48140000      -1.55820000      -0.81370000
H       -1.99450000      -0.55120000      -2.13420000
H        2.20370000      -0.19280000      -1.18010000
H        1.11440000      -0.91450000       0.10090000
H        1.61550000      -2.02220000      -2.74690000
H       -0.08670000      -3.14040000      -0.40750000
H       -0.16250000      -3.77510000      -2.05770000
H        1.32680000      -3.91330000      -1.11490000
H        0.21210000      -0.07820000      -5.21530000
H       -1.24260000      -0.61880000      -4.24590000
H       -1.27830000       1.49070000      -2.96520000
H        0.18560000       2.13810000      -3.84600000
