15
Properties=species:S:1:pos:R:3 gdb_45065=T pbc="F F F"
N        0.11480000       0.96790000       0.69920000
C        0.06250000      -0.10250000       0.04450000
O        1.06570000      -0.62290000      -0.72310000
C        0.71350000      -1.89940000      -1.22360000
C        0.51080000      -2.98200000      -0.20740000
C       -0.68080000      -2.24370000      -0.78720000
C       -1.17460000      -1.02020000      -0.02530000
C       -1.73280000      -1.31150000       1.29390000
N       -2.18320000      -1.58040000       2.32280000
H        1.02660000       1.41690000       0.60590000
H        1.11580000      -2.07990000      -2.21170000
H        0.65280000      -4.00760000      -0.52830000
H        0.80140000      -2.77970000       0.81850000
H       -1.37560000      -2.76580000      -1.43130000
H       -1.94200000      -0.49950000      -0.60990000
