19
Properties=species:S:1:pos:R:3 gdb_41360=T pbc="F F F"
C        0.04720000       1.49930000      -0.10010000
O        1.49090000       1.45080000       0.14550000
C        1.27690000       0.19320000       0.84430000
C        1.81400000      -1.21430000       0.60700000
C        0.59920000      -1.98030000       1.26310000
C       -0.69100000      -1.11320000       0.89190000
C        0.00070000      -0.03820000       0.05410000
C        0.57030000      -0.71780000      -1.22140000
O        1.75590000      -1.41400000      -0.79410000
H       -0.46750000       2.05210000       0.69630000
H       -0.18650000       1.93540000      -1.07510000
H        1.12590000       0.39140000       1.91380000
H        2.79630000      -1.51560000       0.97080000
H        0.55640000      -2.98420000       0.83640000
H        0.71500000      -2.07800000       2.34610000
H       -1.43880000      -1.70160000       0.35390000
H       -1.15980000      -0.70550000       1.79150000
H       -0.14830000      -1.43180000      -1.64390000
H        0.84840000       0.00130000      -1.99740000
