16
Properties=species:S:1:pos:R:3 gdb_113635=T pbc="F F F"
O       -0.01520000       1.20680000       0.56440000
C       -0.09490000      -0.16530000       0.24450000
C       -1.50180000      -0.61420000      -0.09420000
C       -1.87480000      -2.06530000      -0.05010000
N       -2.40860000      -1.14460000       0.93280000
C       -2.09830000      -1.26320000       2.27430000
N       -1.98310000      -2.38470000       2.87140000
C       -1.97940000       0.02230000       2.94970000
N       -1.82260000       1.03170000       3.49360000
H       -0.43790000       1.35730000       1.41800000
H        0.53130000      -0.30320000      -0.64410000
H        0.32140000      -0.80840000       1.03640000
H       -2.00670000       0.02530000      -0.81450000
H       -2.59190000      -2.46360000      -0.76110000
H       -1.13210000      -2.77430000       0.30700000
H       -1.85550000      -2.26060000       3.87450000
