19
Properties=species:S:1:pos:R:3 gdb_108058=T pbc="F F F"
C       -0.14490000       1.50620000      -0.09660000
C       -0.00370000       0.01600000      -0.00660000
C        0.85330000      -0.89720000      -0.89350000
C        0.06980000      -2.06060000      -0.24110000
O        0.53320000      -2.03780000       1.14190000
C       -0.21090000      -0.81390000       1.27760000
C       -0.45730000      -0.35180000       2.67350000
O       -1.14440000      -1.32930000       3.43510000
C       -1.09290000      -1.06180000       0.09610000
H        0.79240000       2.01060000       0.16520000
H       -0.41710000       1.81530000      -1.11210000
H       -0.92210000       1.87940000       0.57850000
H        0.59230000      -0.77050000      -1.94820000
H        1.94050000      -0.90700000      -0.76280000
H        0.00850000      -3.06070000      -0.66420000
H        0.50800000      -0.09150000       3.13860000
H       -1.07600000       0.55110000       2.67040000
H       -0.71910000      -2.17120000       3.23370000
H       -2.16450000      -1.05380000      -0.04780000
