17
Properties=species:S:1:pos:R:3 gdb_10566=T pbc="F F F"
O       -0.03380000       1.50250000      -0.24510000
C       -0.02060000       0.08600000      -0.30380000
C       -1.33150000      -0.52140000       0.21740000
C       -1.37840000      -2.03090000       0.10970000
C       -2.65620000      -2.71960000      -0.27380000
N       -1.53720000      -2.70030000      -1.20750000
C       -0.48440000      -2.80290000       1.02560000
O        0.12180000      -2.32100000       1.95050000
H        0.00380000       1.75750000       0.68230000
H        0.11690000      -0.16590000      -1.36130000
H        0.83020000      -0.33550000       0.24760000
H       -1.45350000      -0.24630000       1.27190000
H       -2.16780000      -0.07800000      -0.33470000
H       -2.89600000      -3.69700000       0.13680000
H       -3.51390000      -2.07510000      -0.44670000
H       -1.68390000      -1.99110000      -1.92220000
H       -0.43140000      -3.88710000       0.78360000
