16
Properties=species:S:1:pos:R:3 gdb_123609=T pbc="F F F"
C       -0.11100000       1.48970000      -0.04830000
C        1.43920000       1.69660000       0.06340000
C        2.12110000       2.19690000       1.38190000
N        2.30360000       0.99450000       2.28310000
C        1.62060000      -0.07530000       1.62980000
C        1.37690000       0.22650000       0.33050000
N        0.05680000      -0.06340000      -0.01270000
N       -0.49720000      -0.77680000       1.06870000
C        0.43780000      -0.82200000       2.00010000
H       -0.66640000       1.80610000       0.83530000
H       -0.59010000       1.81680000      -0.97040000
H        1.90310000       2.07780000      -0.84720000
H        3.08760000       2.65830000       1.15560000
H        1.51440000       2.95000000       1.90100000
H        3.27890000       0.82580000       2.49850000
H        0.24050000      -1.35700000       2.92130000
