17
Properties=species:S:1:pos:R:3 gdb_81559=T pbc="F F F"
C        0.70760000       0.82250000       0.47680000
C       -0.50650000       0.21400000      -0.18850000
O       -1.63490000       0.43180000       0.19280000
C       -0.30750000      -0.70190000      -1.38810000
C        1.09690000      -1.16280000      -1.86650000
O        1.23990000      -1.98490000      -0.63890000
C       -0.14330000      -2.22370000      -1.10290000
C        0.46230000      -2.40360000      -2.53390000
O       -0.29390000      -2.18540000      -3.68530000
H        1.27040000       1.42550000      -0.24610000
H        0.39620000       1.44890000       1.31350000
H        1.37480000       0.02370000       0.81290000
H       -1.03000000      -0.46520000      -2.17070000
H        1.95850000      -0.57440000      -2.18170000
H       -0.77390000      -2.87950000      -0.50280000
H        1.14630000      -3.25600000      -2.60120000
H       -0.70570000      -3.01520000      -3.94570000
