9
Properties=species:S:1:pos:R:3 gdb_788=T pbc="F F F"
O        0.11330000       1.34660000       0.13530000
C        0.07300000       0.00780000       0.06990000
N        0.10810000      -0.63410000      -1.07360000
O        0.04720000      -1.98720000      -0.72810000
C       -0.02130000      -2.08880000       0.60610000
C       -0.01020000      -0.86600000       1.19070000
H        0.16850000       1.68280000      -0.76950000
H       -0.07300000      -3.09360000       0.99700000
H       -0.05300000      -0.60980000       2.23480000
