17
Properties=species:S:1:pos:R:3 gdb_107503=T pbc="F F F"
O        0.18980000       1.31560000       0.29570000
C        0.00720000      -0.02580000      -0.11740000
C       -1.43920000      -0.41420000      -0.06680000
O       -1.93220000      -1.56450000      -0.76550000
C       -2.57510000      -0.30000000      -1.00170000
C       -3.58660000      -0.08590000       0.14140000
C       -2.38950000      -0.21300000       1.11010000
C       -2.25960000      -0.60250000       2.51020000
O       -2.10900000       0.77480000       2.09830000
H       -0.27720000       1.42030000       1.13550000
H        0.37580000      -0.11280000      -1.14420000
H        0.59480000      -0.72740000       0.49920000
H       -2.60860000       0.06030000      -2.02250000
H       -4.00420000       0.92380000       0.16980000
H       -4.38230000      -0.83000000       0.21560000
H       -3.15260000      -0.80240000       3.09900000
H       -1.35050000      -1.08680000       2.86190000
