16
Properties=species:S:1:pos:R:3 gdb_65702=T pbc="F F F"
C       -0.25620000       1.65060000       0.25650000
C       -0.11290000       0.15180000       0.13230000
C       -1.27900000      -0.58650000      -0.50780000
C       -1.42930000      -0.22670000      -1.97840000
O       -2.46280000       0.11590000      -2.48850000
O        1.17750000      -0.32070000      -0.28520000
C        0.76980000      -0.60830000       1.05380000
C        1.50590000       0.04640000       2.11350000
N        2.07810000       0.55400000       2.97990000
H       -1.12870000       1.89950000       0.86850000
H        0.63040000       2.09490000       0.71140000
H       -0.40200000       2.09870000      -0.73160000
H       -1.09280000      -1.66670000      -0.45620000
H       -2.21870000      -0.36730000       0.00660000
H       -0.49070000      -0.31730000      -2.56790000
H        0.54320000      -1.65380000       1.25600000
