7
Properties=species:S:1:pos:R:3 gdb_3900=T pbc="F F F"
O       -0.00380000       0.07960000      -0.36050000
C       -0.01370000       1.19850000       0.04930000
N       -1.21290000       1.90600000       0.34550000
N       -1.24970000       3.11360000       0.08690000
O       -0.05390000       3.72100000      -0.38720000
N        1.17010000       3.14670000       0.05500000
N        1.17310000       1.93860000       0.31410000
