17
Properties=species:S:1:pos:R:3 gdb_131815=T pbc="F F F"
O        0.00380000       1.36130000      -0.42980000
C        0.01660000       0.03950000       0.08050000
C       -1.37080000      -0.55150000      -0.13700000
C       -1.46800000      -2.00580000       0.35460000
C       -2.82600000      -2.59750000       0.14700000
N       -3.61160000      -2.92180000       1.14070000
O       -4.75680000      -3.41380000       0.57760000
N       -4.68630000      -3.39740000      -0.78550000
C       -3.51460000      -2.90120000      -1.06580000
H        0.86600000       1.75630000      -0.27110000
H        0.76990000      -0.58200000      -0.43240000
H        0.26110000       0.02470000       1.15530000
H       -2.10710000       0.06840000       0.38530000
H       -1.60940000      -0.49270000      -1.20540000
H       -0.72620000      -2.62150000      -0.16990000
H       -1.23310000      -2.06250000       1.42190000
H       -3.19610000      -2.77740000      -2.08930000
