18
Properties=species:S:1:pos:R:3 gdb_117307=T pbc="F F F"
C        0.59450000       1.02970000       0.15700000
C       -0.28830000      -0.20510000       0.06810000
O       -0.16250000      -0.85310000      -1.22100000
C        0.85850000      -1.70560000      -1.37300000
O        1.65530000      -1.96610000      -0.49610000
C        0.88960000      -2.27270000      -2.77700000
C        1.22900000      -3.76960000      -2.91040000
N        2.19150000      -4.22120000      -2.06700000
O        0.69690000      -4.44440000      -3.76830000
H        1.65020000       0.75320000       0.10850000
H        0.37080000       1.72760000      -0.65480000
H        0.41680000       1.54100000       1.10830000
H       -0.03960000      -0.92750000       0.84840000
H       -1.34720000       0.05280000       0.13510000
H       -0.05760000      -2.09910000      -3.28440000
H        1.66410000      -1.71830000      -3.32320000
H        2.45670000      -3.65760000      -1.27110000
H        2.39240000      -5.20800000      -2.08010000
