19
Properties=species:S:1:pos:R:3 gdb_106986=T pbc="F F F"
C        0.15050000       1.52820000      -0.17220000
C       -0.09750000       0.02660000       0.03390000
C        0.59340000      -0.49750000       1.26370000
C        2.05660000      -0.93880000       1.28650000
C        1.03300000      -1.93490000       1.70050000
C        0.62010000      -1.66510000       3.14420000
O        1.64710000      -1.80390000       4.09820000
C        0.18570000      -0.23950000       2.67950000
O       -0.41760000       0.64370000       3.22830000
H        1.21650000       1.73580000      -0.31110000
H       -0.38420000       1.89480000      -1.05350000
H       -0.19270000       2.09380000       0.69830000
H       -1.17580000      -0.15510000       0.12140000
H        0.24470000      -0.53720000      -0.84270000
H        2.47790000      -1.07000000       0.29450000
H        2.75040000      -0.54360000       2.02040000
H        0.84660000      -2.85450000       1.16180000
H       -0.28170000      -2.23150000       3.42670000
H        1.35390000      -1.36840000       4.90620000
