13
Properties=species:S:1:pos:R:3 gdb_27044=T pbc="F F F"
N        0.14590000       1.34240000       0.17350000
C       -0.03120000       0.00250000       0.05990000
C       -1.11750000      -0.81470000       0.02150000
O       -0.64370000      -2.13330000      -0.01340000
C        0.69960000      -2.09300000      -0.01200000
N        1.45410000      -3.09010000      -0.04860000
O        1.09950000      -0.74640000       0.03730000
C       -2.51820000      -0.51360000       0.00300000
O       -3.42820000      -1.31440000      -0.03680000
H        1.02560000       1.69950000      -0.16880000
H       -0.65280000       1.92630000      -0.01820000
H        2.43250000      -2.81780000      -0.03370000
H       -2.71070000       0.58650000       0.02760000
