19
Properties=species:S:1:pos:R:3 gdb_86630=T pbc="F F F"
C       -0.09630000       1.59450000       0.03740000
C        0.08490000       0.07490000       0.01520000
C        0.90030000      -0.47300000      -1.13120000
C        1.66160000      -1.51380000      -0.75560000
C        1.47130000      -1.82560000       0.71340000
C        0.82070000      -0.52950000       1.25610000
O        1.78890000       0.35690000       1.79520000
C        2.53520000      -2.27230000      -1.65300000
O        3.19890000      -3.22720000      -1.31260000
H        0.86480000       2.10970000       0.10370000
H       -0.60980000       1.93640000      -0.86680000
H       -0.69280000       1.90040000       0.90170000
H       -0.91380000      -0.38830000      -0.03780000
H        0.84780000      -0.07850000      -2.14200000
H        0.80940000      -2.69220000       0.83710000
H        2.40170000      -2.06170000       1.23690000
H        0.12730000      -0.71930000       2.07900000
H        2.49280000       0.45970000       1.14440000
H        2.55470000      -1.90150000      -2.70270000
