12
Properties=species:S:1:pos:R:3 gdb_129591=T pbc="F F F"
N        0.03050000       1.32140000       0.18890000
C       -0.05450000      -0.01840000       0.05560000
C       -1.14340000      -0.86970000       0.00430000
C       -2.50300000      -0.51330000       0.02460000
N       -3.61160000      -0.17320000       0.03970000
C       -0.52200000      -2.15350000      -0.08170000
O       -1.19040000      -3.30480000      -0.15330000
N        0.78410000      -2.10080000      -0.08680000
O        1.08190000      -0.70670000       0.00220000
H        0.91030000       1.75840000      -0.03430000
H       -0.80190000       1.86090000       0.01350000
H       -0.54590000      -4.02430000      -0.20380000
