20
Properties=species:S:1:pos:R:3 gdb_87482=T pbc="F F F"
C       -0.16550000       1.54200000       0.05330000
C        0.02990000       0.04170000      -0.04430000
C        0.83230000      -0.65760000      -1.17930000
C        2.09510000      -0.14200000      -0.45220000
N        1.21510000      -0.60580000       0.73090000
C        0.93410000      -1.80300000      -0.16570000
C        0.10400000      -3.00740000       0.14690000
C        1.60250000      -3.12060000      -0.15100000
O        2.09130000      -3.73570000      -1.31010000
H        0.69870000       2.12920000      -0.26370000
H       -1.01650000       1.84040000      -0.56860000
H       -0.39830000       1.81620000       1.08760000
H       -0.90430000      -0.46550000       0.21680000
H        0.61420000      -0.69970000      -2.25370000
H        3.01070000      -0.72720000      -0.55710000
H        2.30950000       0.92650000      -0.45650000
H       -0.22350000      -3.17390000       1.16870000
H       -0.58700000      -3.36110000      -0.61420000
H        2.24530000      -3.35630000       0.69170000
H        1.65360000      -3.34320000      -2.07220000
