18
Properties=species:S:1:pos:R:3 gdb_79693=T pbc="F F F"
C       -0.05630000       1.54400000      -0.01520000
N        0.03440000       0.08790000      -0.02220000
C        0.71670000      -0.74030000      -1.04320000
C        2.23320000      -0.68360000      -0.76060000
C        2.79960000       0.46720000       0.02840000
C        2.20620000      -0.69290000       0.78340000
C        0.68080000      -0.75250000       1.01200000
C        0.33870000      -1.87570000      -0.02860000
O       -0.06250000      -2.99270000      -0.04230000
H        0.43350000       1.98490000      -0.89000000
H       -1.10880000       1.85300000      -0.03230000
H        0.40160000       1.97420000       0.88180000
H        0.35190000      -0.70100000      -2.06780000
H        2.89140000      -1.32730000      -1.33220000
H        3.88440000       0.50630000       0.04760000
H        2.33780000       1.44340000       0.02620000
H        2.84420000      -1.34340000       1.36980000
H        0.28030000      -0.72530000       2.02370000
