15
Properties=species:S:1:pos:R:3 gdb_47386=T pbc="F F F"
O        0.01920000      -0.05260000       0.09720000
C        0.00250000       1.14740000       0.02890000
N       -1.17450000       1.86950000       0.01980000
C       -1.33000000       3.31010000      -0.03420000
C       -0.00540000       3.95960000       0.39520000
C        1.13060000       3.25180000      -0.32430000
O        1.15690000       1.85670000       0.00060000
C       -1.73330000       3.76820000      -1.38400000
N       -2.05460000       4.12500000      -2.43500000
H       -1.99630000       1.28790000      -0.02570000
H       -2.12700000       3.61230000       0.65540000
H       -0.01150000       5.02600000       0.15910000
H        0.10860000       3.84160000       1.47670000
H        1.03730000       3.37090000      -1.41140000
H        2.10410000       3.63990000      -0.01940000
