16
Properties=species:S:1:pos:R:3 gdb_61756=T pbc="F F F"
C       -0.44150000       1.28300000      -0.07520000
N       -0.06250000      -0.12630000      -0.13440000
C       -0.11390000      -0.85120000       1.12590000
C       -1.53840000      -1.21930000       1.52640000
O       -1.91550000      -1.29450000       2.66410000
C        0.35370000      -0.80660000      -1.23820000
O        0.66690000      -1.98960000      -1.22540000
C        0.46260000      -0.13470000      -2.62040000
O        0.10820000       0.96190000      -2.96200000
H       -0.41290000       1.72430000      -1.06610000
H       -1.45520000       1.38160000       0.33050000
H        0.24140000       1.82550000       0.58960000
H        0.44450000      -1.78450000       0.99670000
H        0.34440000      -0.26530000       1.92890000
H       -2.20910000      -1.43590000       0.66350000
H        0.91970000      -0.86380000      -3.31840000
