20
Properties=species:S:1:pos:R:3 gdb_58998=T pbc="F F F"
C        0.12230000       1.08190000      -0.65560000
C        0.00830000      -0.19850000       0.19660000
C        0.46610000       0.03040000       1.63970000
C       -1.39180000      -0.73230000       0.14380000
N       -2.24560000      -0.78010000       1.09110000
C       -3.46150000      -1.31280000       0.52680000
C       -4.09950000      -0.48790000      -0.57520000
C       -3.14080000      -1.58570000      -0.93210000
O       -1.78230000      -1.21220000      -1.08170000
H        1.16000000       1.42750000      -0.67980000
H       -0.20690000       0.90330000      -1.68210000
H       -0.49200000       1.88310000      -0.23100000
H        0.64490000      -0.96220000      -0.27030000
H        0.40770000      -0.89000000       2.22560000
H        1.50020000       0.38790000       1.65270000
H       -0.16590000       0.77400000       2.13230000
H       -4.06950000      -1.93960000       1.16750000
H       -5.14470000      -0.68310000      -0.78870000
H       -3.78510000       0.54420000      -0.69110000
H       -3.41410000      -2.44760000      -1.52660000
