19
Properties=species:S:1:pos:R:3 gdb_28449=T pbc="F F F"
C       -0.04770000       1.50240000       0.03660000
C       -0.02780000      -0.00080000      -0.00690000
C       -0.09770000      -0.71410000      -1.20060000
N       -0.08040000      -2.04770000      -1.24120000
C        0.00790000      -2.69740000      -0.08000000
C        0.02730000      -4.20150000      -0.12640000
C        0.07960000      -1.98620000       1.13780000
C        0.17990000      -2.69600000       2.46150000
N        0.06110000      -0.65380000       1.16070000
H        0.86040000       1.88490000       0.51380000
H       -0.12120000       1.93080000      -0.96610000
H       -0.89540000       1.85830000       0.63100000
H       -0.16990000      -0.19670000      -2.15440000
H        0.94500000      -4.60670000       0.31590000
H       -0.81030000      -4.63290000       0.43450000
H       -0.03790000      -4.53160000      -1.16400000
H        1.07430000      -3.32820000       2.51070000
H        0.22330000      -1.96040000       3.26560000
H       -0.68050000      -3.35450000       2.62950000
