18
Properties=species:S:1:pos:R:3 gdb_46057=T pbc="F F F"
O       -0.58840000      -0.13210000       0.16950000
C       -0.34230000       1.05200000       0.13500000
C       -1.31600000       2.21170000       0.37330000
C       -0.42940000       3.46590000       0.44960000
C        0.89970000       3.06290000      -0.24990000
N        0.87720000       1.61410000      -0.14650000
C        0.98230000       3.52460000      -1.69040000
C        1.75750000       4.70830000      -2.07850000
O        2.26370000       3.39190000      -2.30980000
H       -2.01530000       2.23960000      -0.46930000
H       -1.90670000       2.03040000       1.27290000
H       -0.87720000       4.34480000      -0.02010000
H       -0.22090000       3.72190000       1.49120000
H        1.76950000       3.46890000       0.27940000
H        1.63870000       1.04020000      -0.47480000
H        0.14760000       3.21930000      -2.32490000
H        1.48010000       5.26750000      -2.97040000
H        2.28240000       5.28210000      -1.31550000
