19
Properties=species:S:1:pos:R:3 gdb_114543=T pbc="F F F"
O       -0.21190000       1.54590000       0.00340000
C       -0.03450000       0.14550000       0.00320000
C       -1.39820000      -0.52600000       0.01300000
O       -2.07250000      -0.16410000       1.20460000
C       -3.49100000      -0.14000000       1.06910000
C       -3.96280000      -1.19670000       0.03170000
C       -3.50640000      -0.13910000      -1.01160000
C       -3.86840000       0.95230000       0.03200000
O       -2.09010000      -0.16310000      -1.16820000
H        0.65720000       1.95570000       0.00590000
H        0.50090000      -0.20510000      -0.89230000
H        0.51270000      -0.20400000       0.89190000
H       -1.24580000      -1.62020000       0.01140000
H       -3.90380000      -0.12450000       2.07870000
H       -3.50070000      -2.18600000       0.02780000
H       -5.05000000      -1.29840000       0.03970000
H       -3.93410000      -0.12260000      -2.01500000
H       -4.93500000       1.19140000       0.03990000
H       -3.25450000       1.85360000       0.02790000
