17
Properties=species:S:1:pos:R:3 gdb_31890=T pbc="F F F"
C        0.47560000       0.44910000       0.76860000
N       -0.42780000       0.51130000      -0.37080000
C       -1.54440000      -0.31490000      -0.39810000
C       -2.77050000      -0.13830000      -1.02250000
C       -3.52370000      -1.31750000      -0.81010000
C       -2.76010000      -2.19300000      -0.05950000
N       -1.54420000      -1.54880000       0.18430000
C       -3.02230000      -3.47940000       0.43590000
C       -3.22740000      -4.58800000       0.86840000
H        1.21890000       1.24310000       0.67110000
H       -0.02860000       0.55640000       1.74170000
H        1.02450000      -0.49980000       0.76970000
H       -0.66530000       1.45580000      -0.63560000
H       -3.07650000       0.74230000      -1.56580000
H       -4.52560000      -1.51590000      -1.15700000
H       -0.78080000      -1.96700000       0.68550000
H       -3.42210000      -5.56090000       1.24460000
