17
Properties=species:S:1:pos:R:3 gdb_7637=T pbc="F F F"
C       -0.01360000       1.59260000       0.04470000
C        0.03110000       0.06350000      -0.01100000
O        0.84840000      -0.47050000       1.01790000
C       -1.37010000      -0.55390000       0.02760000
C       -1.46520000      -2.10000000       0.18070000
C       -2.26850000      -1.81340000       1.46800000
O       -2.89360000      -2.45170000       2.26730000
N       -2.03040000      -0.45090000       1.34840000
H        1.00130000       1.99710000       0.03220000
H       -0.56550000       2.00780000      -0.80550000
H       -0.50100000       1.93300000       0.96620000
H        0.50500000      -0.24930000      -0.94990000
H        0.36230000      -0.35680000       1.84460000
H       -1.98370000      -0.16060000      -0.79120000
H       -2.03410000      -2.62360000      -0.58870000
H       -0.50740000      -2.59230000       0.35170000
H       -2.56570000       0.30870000       1.74720000
