21
Properties=species:S:1:pos:R:3 gdb_41995=T pbc="F F F"
C        0.04810000       1.51440000      -0.34010000
C        1.42980000       2.00510000       0.14180000
C        2.27410000       0.72900000       0.09290000
O        3.46750000       0.82480000       0.83920000
C        4.06280000      -0.45500000       1.00030000
C        3.18590000      -1.39650000       1.83670000
C        1.73230000      -1.27380000       1.45190000
C        1.31800000      -0.31890000       0.62580000
C       -0.08950000       0.06480000       0.21640000
H       -0.76480000       2.16700000      -0.01330000
H        0.02220000       1.49970000      -1.43500000
H        1.83850000       2.81760000      -0.46390000
H        1.38430000       2.34540000       1.18260000
H        2.52210000       0.50610000      -0.96420000
H        4.25070000      -0.90460000       0.01090000
H        5.03070000      -0.28660000       1.48050000
H        3.54010000      -2.42810000       1.70750000
H        3.29940000      -1.17040000       2.90650000
H        1.02730000      -1.96290000       1.91300000
H       -0.76640000       0.02260000       1.07620000
H       -0.50480000      -0.61340000      -0.53750000
