21
Properties=species:S:1:pos:R:3 gdb_92558=T pbc="F F F"
C       -0.21250000       1.55970000       0.03800000
C        0.00520000       0.04980000       0.01930000
O        0.59310000      -0.34740000      -1.22200000
C        1.67670000      -1.27100000      -1.02680000
C        2.98890000      -0.52030000      -1.29150000
C        3.16780000       0.35290000      -0.02280000
C        2.41090000      -0.40630000       1.07480000
C        0.89270000      -0.53410000       1.10220000
C        1.72130000      -1.61120000       0.47080000
H        0.73360000       2.10480000       0.00420000
H       -0.81670000       1.86330000      -0.82180000
H       -0.74600000       1.85100000       0.94900000
H       -0.98170000      -0.43620000       0.10860000
H        1.52240000      -2.13740000      -1.67750000
H        3.81160000      -1.24100000      -1.36990000
H        2.94750000       0.05370000      -2.22080000
H        4.22230000       0.45360000       0.24990000
H        2.78640000       1.36570000      -0.17640000
H        2.88610000      -0.49450000       2.04610000
H        0.44060000      -0.69170000       2.07610000
H        1.80090000      -2.62940000       0.82960000
