22
Properties=species:S:1:pos:R:3 gdb_57203=T pbc="F F F"
C       -0.19130000       1.70570000       0.37790000
C        0.02820000       0.23500000       0.00810000
C        0.82710000       0.10640000      -1.30220000
C        0.88920000      -1.26890000      -1.94380000
O        1.38290000       1.05970000      -1.79730000
C        0.70330000      -0.56360000       1.13300000
C        2.13360000      -0.18160000       1.46330000
C       -0.16540000      -1.08820000       2.21830000
N        0.43290000      -2.01400000       1.23490000
H        0.75980000       2.23160000       0.48210000
H       -0.75640000       2.21940000      -0.40390000
H       -0.74480000       1.78470000       1.31790000
H       -0.94890000      -0.23870000      -0.16810000
H       -0.12010000      -1.62660000      -2.17860000
H        1.47850000      -1.21740000      -2.86000000
H        1.33520000      -1.99520000      -1.25620000
H        2.19420000       0.84440000       1.83920000
H        2.53010000      -0.85480000       2.22650000
H        2.78100000      -0.25170000       0.58270000
H        0.22440000      -1.17840000       3.22860000
H       -1.23370000      -0.89380000       2.16340000
H       -0.27880000      -2.28960000       0.56200000
