21
Properties=species:S:1:pos:R:3 gdb_113270=T pbc="F F F"
C       -0.00790000       1.13000000       0.22320000
O       -0.22060000      -0.01190000      -0.58650000
C       -1.37080000      -0.71320000      -0.24400000
C       -1.46220000      -2.12290000      -0.73330000
C       -1.30910000      -1.85270000       0.76010000
C        0.02620000      -2.18210000       1.40080000
C       -2.52650000      -2.07100000       1.64790000
C       -2.74960000      -3.53480000       1.97200000
O       -2.91520000      -3.97960000       3.07860000
H        0.89660000       1.61970000      -0.14430000
H       -0.84960000       1.83490000       0.15020000
H        0.13100000       0.86290000       1.27980000
H       -2.27840000      -0.10520000      -0.24830000
H       -2.41180000      -2.47780000      -1.11940000
H       -0.59160000      -2.50480000      -1.25540000
H        0.85110000      -1.87960000       0.75220000
H        0.13980000      -1.66460000       2.36050000
H        0.12120000      -3.25620000       1.59640000
H       -2.44690000      -1.51820000       2.58990000
H       -3.42790000      -1.71830000       1.12530000
H       -2.75010000      -4.20340000       1.07980000
