18
Properties=species:S:1:pos:R:3 gdb_52076=T pbc="F F F"
O       -0.94860000       0.94880000       0.47640000
C        0.04280000       0.97290000      -0.20590000
C        1.19210000       1.93860000      -0.03150000
C        1.43900000       2.75480000      -1.31730000
C        2.64340000       3.66800000      -1.21700000
C        2.61350000       5.01840000      -1.87140000
N        2.59520000       4.91690000      -0.41740000
C        3.98350000       3.00920000      -1.14980000
O        4.17060000       1.83190000      -1.33430000
H        0.17510000       0.25520000      -1.04980000
H        0.97900000       2.58370000       0.82580000
H        2.09300000       1.35070000       0.18400000
H        1.59670000       2.06670000      -2.15560000
H        0.55070000       3.35240000      -1.55330000
H        3.52090000       5.44280000      -2.29300000
H        1.70130000       5.27340000      -2.40470000
H        1.65130000       5.04980000      -0.06110000
H        4.81280000       3.71190000      -0.91650000
