20
Properties=species:S:1:pos:R:3 gdb_116704=T pbc="F F F"
C       -0.24250000       1.41170000       0.13160000
O        0.08060000       0.04450000      -0.08670000
C        0.63390000      -0.59540000       0.96290000
N        0.95870000      -1.80890000       0.87190000
C        1.53850000      -2.43130000       2.00690000
C        1.19840000      -3.89430000       2.26990000
C        2.57890000      -3.50500000       1.80340000
C        3.05640000      -3.86940000       0.41900000
O        3.58760000      -3.46550000       2.78400000
H        0.65130000       2.00500000       0.36080000
H       -0.68310000       1.77560000      -0.79730000
H       -0.97100000       1.52850000       0.94350000
H        0.76330000       0.02430000       1.86320000
H        1.70150000      -1.81860000       2.89600000
H        1.08200000      -4.19310000       3.30560000
H        0.53130000      -4.37160000       1.56100000
H        2.25400000      -3.75230000      -0.31160000
H        3.88860000      -3.22150000       0.12580000
H        3.40720000      -4.90860000       0.39050000
H        3.87260000      -4.37240000       2.94450000
