17
Properties=species:S:1:pos:R:3 gdb_79396=T pbc="F F F"
C        0.02200000       1.46490000      -0.14560000
C        0.02380000      -0.02350000      -0.03720000
O        0.59280000      -0.82230000      -1.12590000
C        0.13970000      -1.81430000      -0.16680000
C        0.55770000      -0.97830000       1.08390000
C       -0.83520000      -1.14130000       1.72610000
O       -1.37650000      -0.06110000       2.45920000
C       -1.15660000      -1.05980000       0.22900000
O       -2.37020000      -1.17470000      -0.39970000
H        1.04130000       1.84490000      -0.26870000
H       -0.56870000       1.78210000      -1.01100000
H       -0.41250000       1.89620000       0.75960000
H        0.29550000      -2.86990000      -0.38140000
H        1.54450000      -0.95300000       1.53970000
H       -1.03350000      -2.10540000       2.21310000
H       -1.04420000      -0.10230000       3.36110000
H       -2.98100000      -0.55590000       0.01750000
