21
Properties=species:S:1:pos:R:3 gdb_102308=T pbc="F F F"
C        0.68860000       0.31660000      -0.55320000
N        0.17630000      -0.32880000       0.64990000
C        0.27400000       0.55930000       1.80020000
C       -1.17360000      -0.85010000       0.49970000
C       -1.25960000      -2.10130000      -0.40760000
C       -2.46790000      -2.99260000      -0.01200000
O       -2.59170000      -4.14100000      -0.81350000
C       -1.38510000      -1.78030000      -1.83100000
N       -1.55000000      -1.56950000      -2.95660000
H        1.71480000       0.64950000      -0.37290000
H        0.70760000      -0.38200000      -1.39220000
H        0.09080000       1.19600000      -0.85830000
H       -0.34380000       1.47240000       1.70300000
H       -0.03860000       0.03290000       2.70750000
H        1.31410000       0.87230000       1.93110000
H       -1.51490000      -1.15800000       1.49450000
H       -1.89060000      -0.08720000       0.14050000
H       -0.34410000      -2.68740000      -0.27090000
H       -2.30690000      -3.34480000       1.01120000
H       -3.38280000      -2.38060000      -0.01840000
H       -2.80310000      -3.86220000      -1.71220000
