23
Properties=species:S:1:pos:R:3 gdb_111312=T pbc="F F F"
C       -0.08340000       1.65560000       0.10840000
C        0.02150000       0.13210000      -0.02650000
C        0.71900000      -0.51630000       1.16460000
C       -0.07070000      -0.60660000       2.48080000
O       -1.19170000      -1.47450000       2.25070000
C        0.07930000      -2.06590000       2.54050000
C        0.90270000      -2.10230000       1.23470000
C        0.29530000      -2.93540000       0.10980000
C        2.35850000      -2.48600000       1.49910000
H        0.90680000       2.11870000       0.18660000
H       -0.58920000       2.09580000      -0.75640000
H       -0.65210000       1.93710000       1.00140000
H       -0.98000000      -0.29750000      -0.13070000
H        0.56740000      -0.11640000      -0.94540000
H        1.69030000      -0.03660000       1.33490000
H       -0.17300000       0.12240000       3.27700000
H        0.13030000      -2.73940000       3.39030000
H       -0.76890000      -2.72120000      -0.00920000
H        0.79620000      -2.74090000      -0.84510000
H        0.40340000      -4.00490000       0.32470000
H        2.44850000      -3.55440000       1.72800000
H        2.98120000      -2.28010000       0.62150000
H        2.77520000      -1.92720000       2.34440000
