21
Properties=species:S:1:pos:R:3 gdb_103545=T pbc="F F F"
C        0.10870000       1.48940000      -0.23520000
C       -0.06500000      -0.03340000      -0.23560000
C       -1.49420000      -0.51020000       0.08920000
O       -1.86720000      -0.12100000       1.41580000
C       -2.51490000      -0.07320000      -0.94690000
C       -2.91040000      -1.07510000      -1.72900000
C       -2.23170000      -2.37140000      -1.36500000
C       -1.63270000      -2.05790000       0.02910000
O       -0.39590000      -2.69380000       0.29520000
H        1.14220000       1.75700000      -0.47420000
H       -0.53590000       1.97760000      -0.97360000
H       -0.10740000       1.92860000       0.74640000
H        0.22130000      -0.43220000      -1.21530000
H        0.60740000      -0.48900000       0.49630000
H       -1.76840000       0.83370000       1.48670000
H       -2.85170000       0.95530000      -1.02230000
H       -3.62090000      -0.99140000      -2.54450000
H       -2.91460000      -3.22920000      -1.35100000
H       -1.42320000      -2.61910000      -2.06640000
H       -2.37110000      -2.31100000       0.80150000
H       -0.56560000      -3.62960000       0.43530000
