15
Properties=species:S:1:pos:R:3 gdb_98948=T pbc="F F F"
O        0.26860000       1.26260000       0.01150000
C       -0.01200000      -0.10850000       0.00020000
C       -1.53820000      -0.29100000       0.01650000
O       -2.31980000       0.61760000       0.03030000
N       -1.87560000      -1.64810000       0.01220000
C       -3.14420000      -2.23900000       0.02060000
N       -4.22690000      -1.56690000       0.03360000
C       -3.07340000      -3.68060000       0.01280000
C       -3.03710000      -4.88320000       0.00640000
H        1.22390000       1.37200000      -0.00280000
H        0.38300000      -0.61550000      -0.89750000
H        0.40490000      -0.63450000       0.87700000
H       -1.11020000      -2.30460000       0.00130000
H       -5.02160000      -2.20460000       0.03750000
H       -3.02130000      -5.94590000       0.00090000
