18
Properties=species:S:1:pos:R:3 gdb_18288=T pbc="F F F"
O       -0.04930000       1.43850000       0.08330000
C       -0.01600000       0.04550000       0.03510000
C       -1.30140000      -0.75760000       0.02490000
C       -2.62480000       0.00230000      -0.00330000
C       -3.23890000       0.12530000      -1.41220000
C       -2.21050000       0.45080000      -2.46910000
C       -0.93660000       0.05600000      -2.38090000
C       -0.42140000      -0.70610000      -1.21680000
H       -0.40660000       1.75430000      -0.75660000
H        0.82280000      -0.33880000       0.60720000
H       -1.29340000      -1.68810000       0.58320000
H       -3.34000000      -0.48070000       0.66890000
H       -2.45500000       1.01010000       0.39340000
H       -3.73880000      -0.81430000      -1.69060000
H       -4.02650000       0.88740000      -1.40750000
H       -2.54770000       0.99340000      -3.34890000
H       -0.23510000       0.28750000      -3.17940000
H        0.16980000      -1.58540000      -1.45860000
