13
Properties=species:S:1:pos:R:3 gdb_133324=T pbc="F F F"
N        0.04850000       1.36890000      -0.05720000
C       -0.01620000       0.01990000      -0.00650000
C       -1.14130000      -0.73300000       0.07780000
F       -2.35260000      -0.15520000       0.08120000
C       -1.05250000      -2.14610000       0.16790000
N        0.04510000      -2.82800000       0.17420000
O        1.22340000      -2.06920000       0.07540000
C        1.25840000      -0.70500000      -0.02490000
N        2.35020000      -0.06140000      -0.13650000
H        0.95470000       1.75550000      -0.27510000
H       -0.78160000       1.90020000      -0.25300000
H       -1.95900000      -2.73920000       0.24190000
H        3.15510000      -0.68650000      -0.14210000
