21
Properties=species:S:1:pos:R:3 gdb_81941=T pbc="F F F"
C       -0.13560000       1.54200000      -0.03260000
C        0.01620000       0.01340000       0.00520000
C        0.83140000      -0.52920000      -1.16520000
O        2.17500000      -0.04020000      -1.22130000
C        1.92580000      -1.33720000      -0.61910000
C        1.81390000      -1.29380000       0.87370000
C        2.79850000      -2.01340000       1.74170000
C        0.77160000      -0.52080000       1.22470000
C        0.33300000      -0.14360000       2.60550000
H        0.85020000       2.01350000      -0.06630000
H       -0.69490000       1.85390000      -0.92050000
H       -0.67230000       1.91410000       0.84500000
H       -0.98780000      -0.43750000      -0.02370000
H        0.36380000      -0.71640000      -2.12890000
H        2.38550000      -2.17480000      -1.13730000
H        3.81070000      -1.61090000       1.60670000
H        2.55050000      -1.94390000       2.80330000
H        2.84920000      -3.07820000       1.48020000
H        0.89490000      -0.67380000       3.37780000
H        0.45790000       0.93150000       2.78570000
H       -0.73270000      -0.36190000       2.75310000
