23
Properties=species:S:1:pos:R:3 gdb_40919=T pbc="F F F"
C        0.28270000       1.43750000      -0.59420000
C        1.52740000       1.57300000       0.32410000
C        1.26080000       0.13580000       0.84420000
C       -0.18680000       0.25170000       0.28900000
C        2.11170000      -1.05990000       0.30910000
C        2.23550000      -1.62840000       1.75100000
C        3.52810000      -1.22280000       2.49880000
C        2.86340000       0.12510000       2.91500000
C        1.51410000      -0.33960000       2.28930000
H       -0.38180000       2.30070000      -0.67690000
H        0.55410000       1.11330000      -1.60260000
H        2.49360000       1.76510000      -0.15140000
H        1.37280000       2.32040000       1.10980000
H       -0.88660000       0.57750000       1.06630000
H       -0.60690000      -0.62670000      -0.20970000
H        1.58190000      -1.70620000      -0.39680000
H        3.06940000      -0.77840000      -0.14220000
H        1.85690000      -2.63980000       1.90530000
H        3.73860000      -1.86500000       3.35850000
H        4.43650000      -1.16110000       1.89130000
H        2.82730000       0.29220000       3.99390000
H        3.28900000       1.01990000       2.45160000
H        0.65030000      -0.36060000       2.95810000
