18
Properties=species:S:1:pos:R:3 gdb_38604=T pbc="F F F"
C        0.04960000       1.48770000      -0.18700000
C        1.30470000       0.70220000      -0.03490000
C        2.12620000       0.72130000       1.24730000
C        1.39160000       0.04780000       2.40130000
C       -0.11760000       0.33010000       2.61910000
O       -0.24170000      -0.95780000       3.32600000
C        0.57930000      -1.25490000       2.13650000
C       -0.42440000      -0.43620000       1.28420000
N       -0.00380000       0.03010000      -0.01820000
H       -0.26770000       2.10620000       0.65020000
H       -0.24700000       1.86140000      -1.16300000
H        1.87100000       0.50290000      -0.94170000
H        3.06990000       0.19080000       1.07540000
H        2.39970000       1.74690000       1.52560000
H        1.96680000       0.01760000       3.32920000
H       -0.60960000       1.19350000       3.06910000
H        0.92850000      -2.27940000       2.00390000
H       -1.43270000      -0.85200000       1.24810000
