17
Properties=species:S:1:pos:R:3 gdb_3367=T pbc="F F F"
C       -0.04620000       1.56970000       0.04270000
C        0.04110000       0.06330000      -0.03830000
C        0.69010000      -0.68390000      -1.19830000
C        1.64300000       0.07420000      -2.12330000
C        2.92820000       0.17880000      -1.27410000
O        2.51530000       0.09910000       0.09420000
C        1.34330000      -0.67470000       0.15780000
H        0.92110000       2.03700000      -0.15460000
H       -0.77730000       1.97020000      -0.66830000
H       -0.35530000       1.87840000       1.04690000
H       -0.82450000      -0.45570000       0.36860000
H        0.19380000      -1.56870000      -1.57900000
H        1.81760000      -0.47570000      -3.05190000
H        1.26070000       1.06330000      -2.39500000
H        3.61400000      -0.65030000      -1.50630000
H        3.47000000       1.12040000      -1.40340000
H        1.41450000      -1.54600000       0.80250000
