19
Properties=species:S:1:pos:R:3 gdb_103874=T pbc="F F F"
C       -0.16470000       1.89110000       0.23910000
C       -0.08650000       0.38910000       0.06320000
C       -1.26360000      -0.17620000      -0.71950000
O       -1.05710000      -1.56200000      -0.93740000
N        1.24560000      -0.17110000      -0.21030000
C        0.56990000      -0.50880000       1.05290000
C        1.22350000      -0.01360000       2.33530000
C        2.20330000      -0.97180000       2.84950000
N        2.96430000      -1.74250000       3.25190000
H        0.72650000       2.28260000       0.73160000
H       -0.23950000       2.38510000      -0.73610000
H       -1.04330000       2.17740000       0.82860000
H       -2.19510000       0.00890000      -0.16110000
H       -1.34020000       0.36530000      -1.67630000
H       -1.75990000      -1.89400000      -1.50220000
H        1.15450000      -0.95700000      -0.85090000
H        0.15180000      -1.50860000       1.12840000
H        1.73110000       0.93850000       2.16080000
H        0.46590000       0.15260000       3.11080000
