14
Properties=species:S:1:pos:R:3 gdb_130399=T pbc="F F F"
N        0.44870000       1.48150000      -0.31210000
C       -0.05240000       0.15220000       0.04650000
C        0.69270000      -0.38520000       1.22240000
C        0.29020000      -0.81960000       2.45890000
N        1.44040000      -1.22410000       3.12210000
N        2.45140000      -1.06900000       2.40860000
O        2.00790000      -0.51890000       1.13450000
C       -1.00200000      -0.87590000       3.01890000
C       -2.10980000      -0.92100000       3.48620000
H        1.40910000       1.41000000      -0.63450000
H       -0.09370000       1.84610000      -1.08870000
H       -1.10500000       0.23340000       0.33280000
H        0.00720000      -0.59680000      -0.76270000
H       -3.08470000      -0.95850000       3.90610000
