18
Properties=species:S:1:pos:R:3 gdb_11305=T pbc="F F F"
C       -0.27800000       1.30760000      -0.05340000
C        0.13060000      -0.15630000       0.08890000
C        0.93690000      -0.70460000      -1.10040000
O        1.79580000      -1.72950000      -0.59390000
C        1.71110000      -1.79010000       0.81230000
C        1.07710000      -0.45740000       1.26550000
C        0.85260000      -2.95840000       1.28500000
O        0.08920000      -3.57510000       0.59150000
H        0.60180000       1.95310000      -0.15540000
H       -0.90700000       1.45810000      -0.93710000
H       -0.84640000       1.64850000       0.81760000
H       -0.76860000      -0.77230000       0.20630000
H        0.29760000      -1.13030000      -1.88070000
H        1.55520000       0.08430000      -1.55430000
H        2.71880000      -1.92800000       1.22900000
H        1.85260000       0.31160000       1.34760000
H        0.56460000      -0.52410000       2.22950000
H        0.96960000      -3.18490000       2.37290000
