16
Properties=species:S:1:pos:R:3 gdb_93387=T pbc="F F F"
O       -0.15880000       1.45440000       0.15330000
C       -0.00140000       0.05210000       0.02760000
C        0.78380000      -0.52980000       1.21610000
N        0.77410000      -1.98370000       1.18180000
C       -0.30690000      -2.75030000       0.84960000
O       -0.30150000      -3.96600000       0.88080000
C       -1.51840000      -1.97520000       0.38590000
O       -1.96600000      -0.90210000       1.22960000
C       -1.37820000      -0.56800000      -0.02390000
H        0.70040000       1.87040000       0.03110000
H        0.51300000      -0.20670000      -0.91230000
H        1.82320000      -0.19020000       1.16770000
H        0.33690000      -0.13500000       2.13540000
H        1.55840000      -2.49510000       1.55710000
H       -2.30270000      -2.60390000      -0.02620000
H       -2.06290000      -0.15230000      -0.76100000
