17
Properties=species:S:1:pos:R:3 gdb_29651=T pbc="F F F"
C       -0.07810000       1.45180000       0.00920000
N       -0.01250000       0.00970000       0.04590000
C       -0.06280000      -0.77590000      -1.11010000
O       -0.11760000      -0.38180000      -2.26300000
N       -0.04120000      -2.06850000      -0.63280000
C        0.02330000      -2.09170000       0.78430000
N        0.04750000      -3.23780000       1.59230000
C        0.03290000      -0.79860000       1.18100000
N       -0.02130000      -0.24890000       2.46480000
H        0.87340000       1.91350000       0.30060000
H       -0.29870000       1.73220000      -1.02210000
H       -0.86550000       1.81950000       0.67360000
H       -0.09930000      -2.86410000      -1.24270000
H        0.84860000      -3.83690000       1.41660000
H       -0.79220000      -3.80430000       1.51610000
H       -0.01670000      -1.00150000       3.14510000
H        0.76020000       0.37010000       2.66020000
