14
Properties=species:S:1:pos:R:3 gdb_125433=T pbc="F F F"
C       -0.00970000       1.49410000       0.01520000
C       -0.04110000      -0.00290000       0.00750000
N       -1.12290000      -0.66380000       0.26050000
C       -1.04490000      -2.03920000       0.23300000
O       -1.98560000      -2.78460000       0.42180000
C        0.30910000      -2.61430000      -0.06210000
N        0.37420000      -3.95940000      -0.02840000
N        1.36490000      -1.90650000      -0.33160000
O        1.15460000      -0.51140000      -0.28740000
H        0.69790000       1.85230000       0.76920000
H        0.32850000       1.87010000      -0.95490000
H       -1.00760000       1.87050000       0.23390000
H       -0.50960000      -4.43790000       0.04830000
H        1.19680000      -4.44180000      -0.34630000
