17
Properties=species:S:1:pos:R:3 gdb_93056=T pbc="F F F"
O        0.17590000       1.39190000       0.26110000
C        0.05240000       0.00740000       0.08750000
C       -1.42590000      -0.39700000       0.18320000
C       -1.64850000      -1.85670000       0.45130000
C       -1.02240000      -2.88010000      -0.15260000
C       -0.06440000      -2.81240000      -1.24480000
C        0.63440000      -1.77010000      -1.74360000
C        0.70100000      -0.39390000      -1.24370000
O        1.31810000       0.46280000      -1.86010000
H        0.74040000       1.68350000      -0.47560000
H        0.60350000      -0.53370000       0.87920000
H       -1.86190000       0.19910000       0.98920000
H       -1.95150000      -0.09610000      -0.73640000
H       -2.40400000      -2.10120000       1.19360000
H       -1.30580000      -3.88780000       0.13890000
H        0.08510000      -3.76250000      -1.75490000
H        1.25680000      -1.92910000      -2.61920000
