17
Properties=species:S:1:pos:R:3 gdb_12896=T pbc="F F F"
C       -0.00090000       1.52440000       0.08840000
C       -0.02280000       0.02980000      -0.03610000
C       -1.28500000      -0.82970000      -0.14450000
C       -0.59170000      -1.79880000       0.84550000
N        0.61240000      -0.90070000       0.97910000
C        1.18800000      -0.76260000      -0.39710000
C        1.19550000      -1.82690000      -1.35880000
C        1.21830000      -2.71530000      -2.17030000
H        0.98550000       1.87600000       0.40430000
H       -0.24160000       1.99690000      -0.87100000
H       -0.73530000       1.86540000       0.82610000
H       -2.16360000      -0.34010000       0.28060000
H       -1.53110000      -1.20730000      -1.14010000
H       -1.08800000      -1.87320000       1.81450000
H       -0.35500000      -2.80070000       0.47950000
H        2.12020000      -0.20440000      -0.35010000
H        1.24430000      -3.49730000      -2.88830000
