18
Properties=species:S:1:pos:R:3 gdb_127423=T pbc="F F F"
C       -0.06390000       1.41970000      -0.00110000
N       -0.06140000      -0.02760000       0.02160000
N        0.03000000      -0.75080000      -1.09240000
C        0.07600000      -2.01250000      -0.65820000
C        0.16550000      -3.18250000      -1.58270000
C        0.01710000      -1.99130000       0.75250000
C        0.05830000      -3.13030000       1.72270000
O        1.22050000      -3.94190000       1.56560000
N       -0.05980000      -0.71860000       1.15390000
H        0.95220000       1.80960000      -0.11910000
H       -0.67670000       1.75890000      -0.83720000
H       -0.48100000       1.77020000       0.94230000
H        0.81830000      -3.94890000      -1.15770000
H       -0.81760000      -3.64080000      -1.74420000
H        0.55320000      -2.87290000      -2.55560000
H       -0.02930000      -2.73120000       2.74220000
H       -0.78430000      -3.81070000       1.56000000
H        1.98630000      -3.36840000       1.67640000
