18
Properties=species:S:1:pos:R:3 gdb_66103=T pbc="F F F"
C       -0.02670000       1.52770000      -0.02210000
C        0.01040000      -0.01030000       0.01570000
C        0.83910000      -0.61070000      -1.16940000
O        1.41140000      -1.82240000      -0.71060000
C        1.56840000      -1.73360000       0.68230000
C        2.24620000      -0.51610000       1.25320000
C        0.72930000      -0.61640000       1.22850000
C       -1.36340000      -0.53470000      -0.01490000
N       -2.44850000      -0.93230000      -0.03770000
H        0.98880000       1.92310000       0.06310000
H       -0.46550000       1.88740000      -0.95740000
H       -0.62200000       1.92340000       0.80440000
H        0.23150000      -0.82740000      -2.05040000
H        1.61600000       0.11280000      -1.45340000
H        1.66570000      -2.70850000       1.14290000
H        2.71830000      -0.61920000       2.22400000
H        2.75500000       0.17030000       0.58500000
H        0.17940000      -0.69790000       2.15750000
