19
Properties=species:S:1:pos:R:3 gdb_22300=T pbc="F F F"
C        0.07590000       1.48520000       0.07360000
C        0.03880000      -0.01320000      -0.01890000
C       -0.10230000      -0.67380000      -1.19680000
C       -0.04940000      -2.11810000      -1.25160000
C        0.35660000      -2.82110000       0.02500000
C       -0.22030000      -2.08320000       1.23500000
N        0.18360000      -0.68170000       1.18090000
N       -0.26060000      -2.87080000      -2.27470000
O       -0.58520000      -2.11020000      -3.41920000
H        1.00590000       1.82160000       0.54740000
H        0.00940000       1.93850000      -0.91620000
H       -0.75400000       1.86590000       0.68310000
H       -0.21050000      -0.11790000      -2.11630000
H        0.02350000      -3.86080000       0.00600000
H        1.45170000      -2.82100000       0.10280000
H       -1.31880000      -2.17520000       1.22790000
H        0.14840000      -2.51970000       2.16790000
H       -0.02830000      -0.13820000       2.00410000
H       -0.69360000      -2.79630000      -4.08480000
