10
Properties=species:S:1:pos:R:3 gdb_132137=T pbc="F F F"
F        0.05430000       0.04640000       0.00300000
C       -0.04390000       1.34710000       0.01090000
C       -1.24230000       2.00050000       0.03090000
F       -2.40250000       1.34770000       0.04380000
C       -1.18040000       3.40440000       0.03700000
N       -0.07790000       4.11030000       0.02520000
C        1.13100000       3.49810000       0.00530000
O        2.22800000       3.94010000      -0.00790000
O        1.08630000       1.97560000      -0.00170000
H       -2.12100000       3.95360000       0.05290000
