14
Properties=species:S:1:pos:R:3 gdb_49056=T pbc="F F F"
O       -0.38050000       0.33460000      -0.56670000
C        0.07350000       1.08220000       0.26050000
C        1.30040000       1.91200000       0.02900000
O        1.46010000       3.01790000       0.93800000
C        1.67240000       3.94840000      -0.15420000
C        1.59970000       2.81520000      -1.20170000
N        2.82980000       2.05730000      -1.39770000
C        2.68790000       1.23240000      -0.30020000
O        3.38190000       0.39860000       0.20020000
H       -0.38070000       1.22140000       1.26520000
H        0.84950000       4.66920000      -0.21540000
H        2.62930000       4.47400000      -0.07780000
H        0.95280000       2.91340000      -2.07110000
H        3.66050000       2.28270000      -1.92820000
