19
Properties=species:S:1:pos:R:3 gdb_57731=T pbc="F F F"
C       -0.07940000       1.64980000       0.03970000
C       -0.03000000       0.11410000       0.02290000
C        0.92050000      -0.43270000       1.09950000
O       -1.33060000      -0.47430000       0.09420000
C       -2.09510000      -0.25110000       1.25280000
C       -3.41950000      -0.97770000       1.07430000
O       -4.29230000      -0.97650000       1.89980000
C        0.47960000      -0.34120000      -1.35150000
O        1.55760000      -0.04460000      -1.79260000
H        0.90040000       2.04150000      -0.24380000
H       -0.82170000       2.01980000      -0.67360000
H       -0.32740000       2.03140000       1.03420000
H        0.66800000      -0.04480000       2.09040000
H        0.88150000      -1.52550000       1.12970000
H        1.94240000      -0.12780000       0.86170000
H       -1.61220000      -0.63710000       2.16320000
H       -2.30920000       0.81470000       1.42360000
H       -3.50730000      -1.51370000       0.10380000
H       -0.24360000      -0.97560000      -1.90750000
