17
Properties=species:S:1:pos:R:3 gdb_55227=T pbc="F F F"
C       -0.32950000       1.49040000      -0.11090000
C        0.39730000       0.17010000       0.02300000
O        0.94430000      -0.17120000       1.04650000
C        0.38750000      -0.74730000      -1.20130000
C        1.71260000      -1.51120000      -1.39500000
O        1.36910000      -2.76770000      -1.99790000
C        0.05350000      -3.05790000      -1.81660000
O       -0.44610000      -4.07020000      -2.20770000
C       -0.60900000      -1.91340000      -1.05200000
H        0.16710000       2.11160000      -0.86610000
H       -1.35510000       1.32990000      -0.46260000
H       -0.33950000       2.01400000       0.84540000
H        0.14400000      -0.17500000      -2.10150000
H        2.41020000      -1.00220000      -2.06260000
H        2.19200000      -1.69030000      -0.42820000
H       -0.70050000      -2.22010000      -0.00370000
H       -1.60900000      -1.72190000      -1.44130000
