16
Properties=species:S:1:pos:R:3 gdb_41129=T pbc="F F F"
C        0.02540000       1.47670000      -0.23450000
N        1.51280000       1.52140000       0.09710000
C        1.37870000       0.24110000       0.85920000
C        1.18280000       0.21520000       2.34970000
C        0.24810000      -0.72510000       2.54310000
C       -0.07640000      -1.24690000       1.15260000
C        1.29340000      -1.25360000       0.32110000
O        0.63860000      -0.83610000      -0.89240000
C        0.02850000      -0.00450000       0.17740000
H       -0.52670000       2.13510000       0.44030000
H       -0.24260000       1.68370000      -1.27340000
H        2.06450000       1.39810000      -0.74690000
H        1.69810000       0.83450000       3.07020000
H       -0.17340000      -1.09080000       3.46850000
H       -0.79610000      -2.05010000       0.99720000
H        2.05050000      -2.04520000       0.25170000
