18
Properties=species:S:1:pos:R:3 gdb_53207=T pbc="F F F"
C        0.12950000       1.46620000       0.16870000
C        0.03880000       0.01780000       0.05510000
C       -0.02570000      -1.18110000      -0.03550000
C       -0.09360000      -2.63510000      -0.15400000
N        0.83270000      -3.29320000       0.80790000
C        0.09640000      -3.99400000       1.56400000
O       -1.23780000      -4.04900000       1.36930000
C       -1.49790000      -3.27210000       0.16550000
C       -2.65870000      -2.33000000       0.41410000
H        0.74190000       1.75570000       1.02970000
H        0.58280000       1.90880000      -0.72510000
H       -0.85980000       1.91870000       0.29860000
H        0.21260000      -2.91600000      -1.16800000
H        0.45120000      -4.58540000       2.40160000
H       -1.75510000      -3.99490000      -0.61640000
H       -2.41440000      -1.61410000       1.20200000
H       -2.88910000      -1.76970000      -0.49640000
H       -3.54650000      -2.89640000       0.70790000
