20
Properties=species:S:1:pos:R:3 gdb_88866=T pbc="F F F"
C        0.08510000       1.56700000      -0.25520000
C       -0.08050000       0.09280000       0.02920000
N        1.11810000      -0.75710000      -0.04280000
C        0.42940000      -0.59220000       1.24700000
C        1.19160000       0.11850000       2.32980000
O        0.29780000       0.85960000       3.15270000
C        0.74900000       0.75420000       4.49980000
C        1.99940000      -0.14180000       4.40470000
O        1.81420000      -0.82260000       3.17510000
H        1.05380000       1.93200000       0.09160000
H        0.02330000       1.75660000      -1.33220000
H       -0.70060000       2.14660000       0.23970000
H       -1.00310000      -0.33200000      -0.36580000
H        0.90410000      -1.66520000      -0.44430000
H       -0.15880000      -1.42170000       1.63390000
H        1.94950000       0.79410000       1.89840000
H        0.97770000       1.74620000       4.90700000
H       -0.04190000       0.29920000       5.10800000
H        2.91970000       0.46130000       4.38390000
H        2.07750000      -0.88080000       5.20480000
