15
Properties=species:S:1:pos:R:3 gdb_48581=T pbc="F F F"
O       -0.34350000       0.35160000      -0.58410000
C        0.08650000       1.10690000       0.24900000
C        1.34160000       1.90020000       0.03200000
C        2.72050000       1.27430000      -0.31280000
C        3.03800000       2.77800000      -0.62530000
C        1.56730000       2.86680000      -1.16240000
C        2.82010000       3.36240000       0.76590000
O        3.42620000       4.15070000       1.42060000
O        1.65520000       2.73940000       1.17960000
H       -0.41130000       1.26810000       1.22780000
H        3.25700000       0.78590000       0.50260000
H        2.68680000       0.64970000      -1.20540000
H        3.91230000       3.12000000      -1.17100000
H        1.43430000       2.37920000      -2.12810000
H        1.05340000       3.82880000      -1.12080000
