12
Properties=species:S:1:pos:R:3 gdb_25358=T pbc="F F F"
O        0.00980000      -0.02960000      -0.00110000
C        0.02130000       1.17610000       0.00860000
C        1.24460000       1.99350000       0.00200000
N        1.30210000       3.29220000       0.01200000
C        2.65900000       3.58530000      -0.00050000
C        3.34810000       2.40020000      -0.01750000
O        2.46140000       1.38580000      -0.01610000
C        3.17880000       4.90010000       0.00460000
C        3.63390000       6.01320000       0.00870000
H       -0.89460000       1.79770000       0.02360000
H        4.39400000       2.14560000      -0.03090000
H        4.02930000       6.99900000       0.01240000
