18
Properties=species:S:1:pos:R:3 gdb_125403=T pbc="F F F"
C       -0.23790000       1.51720000       0.02500000
C       -0.00240000       0.04020000       0.00440000
C        0.04960000      -0.80180000      -1.05900000
O        0.28250000      -2.06290000      -0.66790000
N        0.39360000      -2.08280000       0.71820000
C        0.22550000      -0.84070000       1.11410000
C        0.27810000      -0.47490000       2.54410000
C       -0.24650000      -1.43390000       3.59760000
C        1.22790000      -1.19690000       3.48270000
H        0.60600000       2.05550000       0.47080000
H       -0.37860000       1.90450000      -0.98750000
H       -1.13050000       1.77670000       0.60530000
H       -0.05750000      -0.65060000      -2.12270000
H        0.12310000       0.58150000       2.73270000
H       -0.77850000      -1.00940000       4.44170000
H       -0.63530000      -2.37750000       3.23330000
H        1.83190000      -1.98090000       3.04120000
H        1.72220000      -0.60730000       4.24680000
