14
Properties=species:S:1:pos:R:3 gdb_3231=T pbc="F F F"
C       -0.03540000       1.53880000       0.05180000
C        0.09100000       0.04980000       0.02470000
N       -0.83190000      -0.87710000       0.71690000
C        0.62710000      -0.92610000       1.00200000
C        1.31310000      -1.72260000      -0.16490000
O        0.31950000      -2.12600000      -1.10590000
C        0.77590000      -0.77580000      -1.13980000
H        0.89260000       2.01930000      -0.27830000
H       -0.84060000       1.88150000      -0.60900000
H       -0.25390000       1.89690000       1.06370000
H       -1.25260000      -0.34600000       1.48120000
H        1.02620000      -0.77460000       1.99650000
H        2.24350000      -2.27580000      -0.12900000
H        1.17210000      -0.38750000      -2.07110000
