13
Properties=species:S:1:pos:R:3 gdb_20322=T pbc="F F F"
C       -0.04660000      -1.20940000      -0.13380000
C        0.00160000      -0.01360000      -0.03360000
C        0.05440000       1.44090000       0.09550000
C        1.45130000       1.99150000       0.02160000
N        2.04910000       2.52740000       1.07470000
N        3.25380000       2.88300000       0.56670000
C        3.32470000       2.55510000      -0.73830000
N        2.19900000       1.98870000      -1.12140000
H       -0.08550000      -2.26610000      -0.22730000
H       -0.54770000       1.89810000      -0.69920000
H       -0.38210000       1.74820000       1.05140000
H        3.93630000       3.32810000       1.15780000
H        4.19220000       2.74620000      -1.35200000
