14
Properties=species:S:1:pos:R:3 gdb_12155=T pbc="F F F"
C       -0.21520000       1.44300000      -0.08210000
C        0.03810000      -0.05040000       0.06760000
C        0.91160000      -0.77820000      -0.99440000
O        1.87410000      -1.14920000       0.06240000
C        1.15730000      -0.47490000       1.02120000
O        1.43800000      -0.32740000       2.16580000
C        0.34890000      -1.92170000      -1.67670000
C       -0.13830000      -2.85780000      -2.25080000
H        0.70790000       1.98320000      -0.31370000
H       -0.93840000       1.63830000      -0.87920000
H       -0.61680000       1.84840000       0.85060000
H       -0.88660000      -0.59390000       0.27700000
H        1.40280000      -0.09700000      -1.69560000
H       -0.56110000      -3.68970000      -2.75870000
