14
Properties=species:S:1:pos:R:3 gdb_25277=T pbc="F F F"
O       -0.03520000      -0.09120000       0.02590000
C       -0.02580000       1.11110000       0.02900000
N       -1.08160000       1.98930000       0.05610000
C       -0.71530000       3.40390000       0.05110000
C        0.78050000       3.28500000       0.01600000
N        1.81920000       4.07120000      -0.00650000
C        2.89830000       3.19340000      -0.03400000
C        2.49010000       1.88410000      -0.02770000
N        1.11410000       1.96030000       0.00490000
H       -2.02560000       1.64580000       0.07660000
H       -1.11230000       3.92840000      -0.82640000
H       -1.07130000       3.92400000       0.94850000
H        3.91130000       3.56520000      -0.05690000
H        3.01550000       0.94540000      -0.04220000
