15
Properties=species:S:1:pos:R:3 gdb_31186=T pbc="F F F"
O        0.32180000       1.05610000      -0.64310000
C       -0.02950000       0.03840000       0.27620000
C       -1.40660000      -0.50870000       0.05070000
C       -2.18170000      -0.72190000      -1.06540000
C       -1.84140000      -0.45570000      -2.46530000
O       -2.58660000      -0.70500000      -3.38930000
C       -3.41600000      -1.29200000      -0.59010000
C       -3.29750000      -1.38070000       0.75240000
O       -2.07910000      -0.90100000       1.15760000
H       -0.31750000       1.77130000      -0.55310000
H        0.72220000      -0.74810000       0.14060000
H        0.04020000       0.37060000       1.32230000
H       -0.84500000      -0.00230000      -2.62890000
H       -4.25450000      -1.58230000      -1.20180000
H       -3.93940000      -1.73270000       1.54250000
