9
Properties=species:S:1:pos:R:3 gdb_21748=T pbc="F F F"
O       -0.06150000       1.53080000       0.01100000
C        1.29310000       1.65290000      -0.00120000
N        1.98480000       0.57180000      -0.01380000
C        1.00070000      -0.41770000      -0.00970000
C       -0.34340000       0.14520000       0.00620000
O       -1.44920000      -0.30430000       0.01430000
N        1.44260000      -2.81260000      -0.02710000
N        1.26100000      -1.69720000      -0.01930000
H        1.68380000       2.66010000       0.00040000
