16
Properties=species:S:1:pos:R:3 gdb_53739=T pbc="F F F"
N        0.02190000       1.22760000       0.48630000
C        0.04120000      -0.01650000      -0.08260000
O        1.03000000      -0.50030000      -0.59970000
C       -1.23800000      -0.70450000      -0.03750000
C       -2.26660000      -1.33710000      -0.02300000
C       -3.50650000      -2.06220000      -0.02100000
O       -4.61570000      -1.37780000       0.49830000
C       -3.75940000      -3.07940000      -1.12730000
C       -3.49890000      -3.54220000       0.27960000
H        0.90310000       1.70590000       0.58500000
H       -0.75900000       1.52750000       1.04440000
H       -4.80150000      -0.63420000      -0.08650000
H       -4.78060000      -3.12190000      -1.48860000
H       -2.98820000      -3.22030000      -1.87500000
H       -2.54800000      -4.00630000       0.50990000
H       -4.34430000      -3.88980000       0.86180000
