22
Properties=species:S:1:pos:R:3 gdb_116722=T pbc="F F F"
C       -0.38020000       1.70500000      -0.10870000
O       -0.11200000       0.34250000       0.19790000
C       -1.17440000      -0.48500000       0.14930000
N       -1.04580000      -1.71380000       0.38840000
C       -2.22130000      -2.53960000       0.31610000
C       -2.14510000      -3.78780000      -0.60550000
C       -2.88360000      -4.60250000       0.48920000
C       -2.51060000      -3.49790000       1.52360000
C       -1.29500000      -3.83080000       2.38190000
H        0.56830000       2.23430000      -0.01150000
H       -0.75170000       1.82100000      -1.13430000
H       -1.10610000       2.13990000       0.58920000
H       -2.12530000       0.00750000      -0.11230000
H       -3.12810000      -1.95520000       0.08490000
H       -2.60820000      -3.70800000      -1.59220000
H       -1.10740000      -4.10620000      -0.72950000
H       -3.96050000      -4.66230000       0.30970000
H       -2.51160000      -5.60920000       0.69650000
H       -3.33200000      -3.16470000       2.16630000
H       -0.45480000      -4.17870000       1.77360000
H       -0.94970000      -2.95300000       2.93580000
H       -1.54330000      -4.61820000       3.10220000
