18
Properties=species:S:1:pos:R:3 gdb_41417=T pbc="F F F"
C        0.00080000       1.50440000      -0.08120000
C        1.57160000       1.53560000       0.00310000
C        1.53890000       0.03530000      -0.24190000
O        2.39440000      -0.91960000       0.32360000
C        1.72280000      -2.15620000       0.00140000
C        0.84970000      -1.85730000      -1.22850000
C        1.13140000      -0.48150000      -1.64480000
N       -0.26020000      -0.83120000      -1.16650000
C        0.02160000      -0.04940000       0.07270000
H       -0.51660000       2.04270000       0.71350000
H       -0.39820000       1.82390000      -1.04580000
H        2.12040000       2.16080000      -0.70520000
H        1.90930000       1.76320000       1.01760000
H        2.47760000      -2.91380000      -0.22990000
H        1.13570000      -2.49930000       0.86310000
H        0.65110000      -2.64410000      -1.94560000
H        1.36400000      -0.10880000      -2.63450000
H       -0.39250000      -0.44970000       1.00090000
