14
Properties=species:S:1:pos:R:3 gdb_130043=T pbc="F F F"
N        0.00480000       1.35410000       0.12840000
C        0.01760000      -0.00970000       0.03730000
N       -1.04540000      -0.74870000       0.01320000
C       -0.66330000      -2.17640000      -0.01040000
C        0.83730000      -2.15180000      -0.01720000
N        1.90790000      -2.93330000      -0.04250000
N        2.90410000      -2.03110000      -0.02520000
N        2.56830000      -0.73700000       0.01060000
C        1.24120000      -0.81610000       0.01570000
H        0.81810000       1.84390000      -0.20760000
H       -0.88100000       1.79370000      -0.07090000
H       -1.07960000      -2.69120000       0.86380000
H       -1.09020000      -2.66110000      -0.89630000
H        3.86940000      -2.32050000      -0.03790000
