14
Properties=species:S:1:pos:R:3 gdb_18663=T pbc="F F F"
O        0.02090000      -0.02030000      -0.15530000
C        0.00930000       1.18420000       0.00080000
N       -1.17010000       1.89080000       0.14540000
C       -1.28830000       3.27790000       0.08000000
C       -0.23250000       4.09030000      -0.03250000
C        1.13090000       3.52220000      -0.00130000
N        1.50300000       2.80590000       1.24070000
C        1.25080000       2.02420000       0.01180000
H       -2.00260000       1.32100000       0.12730000
H       -2.30810000       3.64190000       0.11310000
H       -0.37340000       5.16040000      -0.10800000
H        1.91530000       4.07780000      -0.50800000
H        2.50970000       2.86250000       1.37690000
H        2.08930000       1.53890000      -0.47670000
