20
Properties=species:S:1:pos:R:3 gdb_111554=T pbc="F F F"
C        0.05340000       1.28150000      -0.34450000
O       -0.00220000      -0.00780000       0.22710000
C       -1.26740000      -0.60490000       0.14040000
C       -1.72820000      -1.27510000      -1.19080000
C       -0.60160000      -2.28590000      -1.44300000
N       -1.01540000      -3.03390000      -0.20700000
C       -2.36020000      -2.39350000      -0.28430000
C       -1.41440000      -1.97340000       0.78680000
C       -1.34490000      -2.31460000       2.24110000
H        1.06140000       1.66860000      -0.17840000
H       -0.14400000       1.26370000      -1.42660000
H       -0.67180000       1.96360000       0.12620000
H       -2.04730000       0.07530000       0.51770000
H       -2.21120000      -0.70050000      -1.97890000
H       -0.78010000      -2.92910000      -2.30820000
H        0.42870000      -1.91710000      -1.44110000
H       -3.30320000      -2.92320000      -0.26690000
H       -1.62000000      -3.36010000       2.40220000
H       -0.32880000      -2.16900000       2.62220000
H       -2.02070000      -1.68090000       2.82540000
