16
Properties=species:S:1:pos:R:3 gdb_16077=T pbc="F F F"
C        0.04520000       1.36240000      -0.22390000
O       -0.01330000       0.02570000       0.26080000
C       -1.24780000      -0.55460000       0.12150000
C       -2.36710000      -0.52590000       1.16350000
O       -2.73460000      -1.90090000       0.83530000
C       -1.61180000      -2.01910000      -0.05390000
C       -1.81950000      -1.06540000      -1.19310000
O       -3.09240000      -0.76030000      -1.66560000
H        1.07880000       1.69440000      -0.10850000
H       -0.24030000       1.41540000      -1.28240000
H       -0.61110000       2.03000000       0.35080000
H       -1.99420000      -0.46670000       2.19070000
H       -3.19730000       0.17160000       1.01060000
H       -1.05490000      -2.94880000      -0.05240000
H       -1.07530000      -1.12970000      -1.98320000
H       -3.70840000      -1.22370000      -1.08150000
