20
Properties=species:S:1:pos:R:3 gdb_96491=T pbc="F F F"
C       -0.03740000       1.56670000      -0.01060000
C       -0.04130000       0.03030000       0.01360000
C        0.53050000      -0.48460000      -1.31900000
O        0.34760000      -1.88560000      -1.52810000
C        1.45620000      -2.68340000      -1.29470000
O        1.93920000      -2.58300000       0.04210000
C        0.97250000      -2.78210000       1.00270000
N        0.38620000      -1.86060000       1.62290000
C        0.70600000      -0.47560000       1.26790000
H        0.98480000       1.96150000      -0.05240000
H       -0.57850000       1.95310000      -0.88030000
H       -0.51220000       1.97280000       0.88690000
H       -1.07870000      -0.32040000       0.07860000
H        0.00060000       0.01030000      -2.14070000
H        1.59570000      -0.22370000      -1.40140000
H        1.13910000      -3.70930000      -1.52190000
H        2.31990000      -2.40240000      -1.91200000
H        0.75320000      -3.83080000       1.21530000
H        1.78580000      -0.33830000       1.12230000
H        0.40560000       0.14390000       2.11840000
