19
Properties=species:S:1:pos:R:3 gdb_102215=T pbc="F F F"
C       -0.34120000       1.37350000      -0.07900000
O        0.07190000       0.03050000       0.06390000
C        0.67520000      -0.51140000      -1.09440000
C        1.30830000      -1.86080000      -0.68690000
C        2.40690000      -1.70810000       0.25780000
C        3.32470000      -1.57520000       1.02500000
C        4.42830000      -1.42040000       1.96180000
C       -0.28960000      -0.69470000      -2.18870000
C       -1.08240000      -0.85590000      -3.07790000
H        0.50700000       2.03160000      -0.32300000
H       -1.10650000       1.48460000      -0.85930000
H       -0.76200000       1.67870000       0.88160000
H        1.47860000       0.15850000      -1.44320000
H        0.51200000      -2.48180000      -0.26080000
H        1.65180000      -2.36490000      -1.59730000
H        4.43540000      -2.22680000       2.70360000
H        5.39630000      -1.43480000       1.44850000
H        4.35630000      -0.47250000       2.50670000
H       -1.78090000      -0.99270000      -3.86630000
