17
Properties=species:S:1:pos:R:3 gdb_49624=T pbc="F F F"
O       -0.04390000       0.03760000      -0.37400000
C       -0.01770000       1.17940000       0.02160000
C        1.22010000       1.99680000       0.06390000
C        1.22280000       3.50460000      -0.07520000
O        0.03250000       4.09280000       0.45580000
C        0.41010000       3.63640000       1.77230000
C        0.32480000       4.54240000       2.95270000
C       -0.58980000       3.32790000       2.83050000
C        1.61850000       2.90940000       1.24010000
H       -0.93690000       1.69140000       0.36750000
H        2.07920000       1.50890000      -0.38810000
H        1.76250000       4.04600000      -0.84240000
H        1.12840000       4.51700000       3.68150000
H       -0.11680000       5.51940000       2.79090000
H       -1.63090000       3.51590000       2.59050000
H       -0.41880000       2.47440000       3.47790000
H        2.58050000       2.81640000       1.72450000
