15
Properties=species:S:1:pos:R:3 gdb_18654=T pbc="F F F"
O        0.02580000       0.07100000       0.53950000
C       -0.02770000       1.20900000       0.11350000
C       -1.30350000       1.87380000      -0.22070000
C       -1.33390000       2.99370000      -0.95160000
C       -0.09820000       3.66340000      -1.48450000
N        1.17800000       3.26520000      -0.88870000
C        1.30440000       3.35420000       0.55160000
C        1.21560000       2.01140000      -0.11390000
H       -2.20670000       1.37480000       0.11470000
H       -2.28500000       3.44920000      -1.22130000
H       -0.03800000       3.47710000      -2.56670000
H       -0.18880000       4.75220000      -1.37830000
H        2.26880000       3.69670000       0.91560000
H        0.44580000       3.67350000       1.13870000
H        2.11670000       1.41490000      -0.22270000
