20
Properties=species:S:1:pos:R:3 gdb_56042=T pbc="F F F"
O        0.07600000       0.35310000      -0.71930000
C       -0.02750000       1.47890000      -0.00020000
O        0.91660000       2.12560000       0.36310000
C       -1.48530000       1.88210000       0.27950000
N       -2.39370000       0.75320000       0.05240000
H       -0.85410000       0.05430000      -0.83820000
C       -3.76000000       1.12770000      -0.35010000
C       -4.53570000       1.42440000       0.95710000
C       -3.78420000       0.59770000       2.03670000
C       -2.60780000      -0.06110000       1.26780000
H       -1.53050000       2.31280000       1.28820000
H       -1.72500000       2.68700000      -0.42360000
H       -3.73980000       1.96260000      -1.05390000
H       -4.20680000       0.27000000      -0.86630000
H       -4.50090000       2.49190000       1.19200000
H       -5.58950000       1.14860000       0.87190000
H       -3.41720000       1.24470000       2.83750000
H       -4.42060000      -0.15730000       2.50420000
H       -2.87960000      -1.07550000       0.95610000
H       -1.68550000      -0.13130000       1.84900000
