16
Properties=species:S:1:pos:R:3 gdb_54351=T pbc="F F F"
N        0.04960000       1.26690000       0.47290000
C       -0.01300000       0.14300000      -0.27930000
O        0.86610000      -0.21120000      -1.04100000
C       -1.29200000      -0.70560000      -0.12830000
C       -1.87390000      -1.16420000      -1.50850000
O       -1.65230000      -2.54930000      -1.21220000
C       -0.98370000      -2.23460000       0.01630000
C       -2.26900000      -0.18570000       0.80700000
C       -3.07570000       0.25260000       1.58570000
H        0.86980000       1.84580000       0.40030000
H       -0.69950000       1.52630000       1.09210000
H       -2.93240000      -0.93210000      -1.66110000
H       -1.27200000      -0.82060000      -2.35560000
H        0.08750000      -2.45520000      -0.02700000
H       -1.44770000      -2.71740000       0.88190000
H       -3.80140000       0.62150000       2.26830000
