20
Properties=species:S:1:pos:R:3 gdb_119853=T pbc="F F F"
O       -0.10980000       1.45900000      -0.11600000
C        0.02580000       0.04670000      -0.09930000
C       -1.36840000      -0.54950000       0.11150000
C       -1.37570000      -2.04810000       0.09030000
C       -1.62230000      -2.87520000       1.11290000
C       -1.54620000      -4.33860000       0.72830000
C       -1.27320000      -4.28190000      -0.77120000
N       -2.35470000      -3.63650000      -1.54700000
C       -1.14530000      -2.85150000      -1.15610000
H        0.76480000       1.84420000      -0.22180000
H        0.45600000      -0.32150000      -1.04500000
H        0.69110000      -0.28600000       0.71270000
H       -1.75710000      -0.18190000       1.06660000
H       -2.02390000      -0.15480000      -0.67560000
H       -1.89350000      -2.55270000       2.11290000
H       -0.74100000      -4.86040000       1.26310000
H       -2.47720000      -4.87380000       0.95090000
H       -0.68720000      -5.06090000      -1.24680000
H       -2.25240000      -3.91870000      -2.52120000
H       -0.47950000      -2.50600000      -1.94040000
