16
Properties=species:S:1:pos:R:3 gdb_55677=T pbc="F F F"
O        0.18830000       0.81430000      -1.42100000
C       -0.00310000       1.44490000      -0.26460000
O        0.87080000       1.61460000       0.54460000
C       -1.43090000       1.98590000      -0.03600000
N       -2.47570000       0.96080000       0.03480000
C       -3.01340000       0.60420000       1.27480000
N       -3.89480000      -0.29910000       1.39690000
C       -2.95700000       0.38790000      -1.11810000
N       -2.38040000       0.59020000      -2.24270000
H       -0.66510000       0.77810000      -1.93120000
H       -2.86710000       0.12600000      -3.00330000
H       -1.41860000       2.53360000       0.90560000
H       -1.68560000       2.67390000      -0.84940000
H       -2.57980000       1.19400000       2.08730000
H       -4.17470000      -0.39910000       2.36920000
H       -3.84150000      -0.22450000      -0.94820000
