15
Properties=species:S:1:pos:R:3 gdb_61364=T pbc="F F F"
C        0.08630000       1.43720000       0.05170000
C       -0.00240000      -0.08120000       0.06250000
O       -1.37320000      -0.53610000       0.09370000
C       -1.91390000      -0.72790000       1.31560000
O       -1.33940000      -0.55260000       2.36010000
C       -3.28230000      -1.17690000       1.20220000
C       -4.42310000      -1.55110000       1.16450000
C        0.61650000      -0.73710000      -1.16440000
O        1.55600000      -0.28140000      -1.75890000
H        1.12490000       1.72950000      -0.11850000
H       -0.52490000       1.85020000      -0.75520000
H       -0.25220000       1.84490000       1.00610000
H        0.50750000      -0.48410000       0.94740000
H       -5.43300000      -1.88170000       1.13190000
H        0.13400000      -1.69560000      -1.45440000
