20
Properties=species:S:1:pos:R:3 gdb_90159=T pbc="F F F"
C       -0.17100000       1.48880000       0.01390000
N        0.08860000       0.06260000       0.01360000
C        1.13360000      -0.48400000      -0.90690000
C        1.81010000      -1.14740000       0.29710000
C        2.21140000      -0.15130000       1.34980000
C        0.75110000      -0.54530000       1.17640000
C        0.17400000      -1.70070000       1.96330000
C        1.22540000      -2.83280000       1.71280000
O        1.93250000      -2.51590000       0.49660000
H        0.72800000       2.11330000       0.16590000
H       -0.62270000       1.77870000      -0.94080000
H       -0.88450000       1.72530000       0.80980000
H        0.71990000      -1.19260000      -1.63040000
H        1.73650000       0.26690000      -1.43490000
H        2.71420000      -0.55710000       2.22070000
H        2.54210000       0.84330000       1.06600000
H        0.03280000      -1.52980000       3.03470000
H       -0.79290000      -1.96070000       1.52400000
H        1.93840000      -2.88580000       2.54650000
H        0.77710000      -3.82290000       1.59110000
