13
Properties=species:S:1:pos:R:3 gdb_14638=T pbc="F F F"
C        0.05240000       1.50650000       0.04780000
C        0.02510000       0.05370000      -0.03190000
C        0.00140000      -1.14650000      -0.09760000
C       -0.02830000      -2.60690000      -0.17740000
C       -1.37190000      -3.16320000      -0.03070000
C       -2.47960000      -3.62710000       0.08980000
C       -3.73260000      -4.15220000       0.22620000
N       -4.79790000      -4.60060000       0.34200000
H        0.67960000       1.84620000       0.87870000
H        0.44940000       1.94660000      -0.87310000
H       -0.95410000       1.90920000       0.20310000
H        0.38830000      -2.94440000      -1.13700000
H        0.61860000      -3.04380000       0.59650000
