15
Properties=species:S:1:pos:R:3 gdb_125151=T pbc="F F F"
C       -0.02780000       1.52180000       0.19070000
C       -0.00720000       0.04820000      -0.01600000
C       -0.02060000      -0.71730000      -1.14870000
O        0.00880000      -2.00900000      -0.78960000
N        0.04270000      -2.03440000       0.63590000
N        0.03160000      -0.84370000       1.03740000
C       -0.05240000      -0.40280000      -2.59020000
N       -0.15400000      -1.50590000      -3.40430000
N       -0.02100000       0.82940000      -2.94050000
H        0.87490000       1.84800000       0.71790000
H       -0.08280000       2.02670000      -0.77290000
H       -0.88630000       1.80990000       0.80580000
H        0.04660000      -2.41350000      -3.01670000
H        0.03530000      -1.38630000      -4.38590000
H       -0.05140000       0.92950000      -3.95600000
