25
Properties=species:S:1:pos:R:3 gdb_122445=T pbc="F F F"
C       -0.12680000       1.48860000      -0.37110000
C       -0.04930000       0.03600000       0.06840000
O       -1.33880000      -0.53070000      -0.01720000
C       -1.37510000      -1.89150000       0.36820000
C       -2.80040000      -2.37050000       0.29070000
C       -3.38940000      -2.85340000      -1.01520000
C       -3.18990000      -3.82700000       0.12370000
C       -2.13060000      -4.90670000      -0.01250000
C       -4.42500000      -4.28870000       0.87680000
H        0.85980000       1.95850000      -0.31580000
H       -0.48830000       1.55830000      -1.40100000
H       -0.81450000       2.04700000       0.27040000
H        0.65740000      -0.52280000      -0.57010000
H        0.33260000      -0.03560000       1.10190000
H       -0.71850000      -2.48600000      -0.28710000
H       -0.98490000      -2.00050000       1.39590000
H       -3.46630000      -1.78530000       0.92020000
H       -4.39810000      -2.54770000      -1.27300000
H       -2.71750000      -2.92330000      -1.86540000
H       -1.27500000      -4.58260000      -0.60980000
H       -1.75560000      -5.22320000       0.96830000
H       -2.55350000      -5.79200000      -0.50200000
H       -4.89520000      -5.14200000       0.37330000
H       -4.17280000      -4.60460000       1.89630000
H       -5.17140000      -3.49170000       0.94950000
