14
Properties=species:S:1:pos:R:3 gdb_132280=T pbc="F F F"
C       -0.02080000       1.50160000      -0.00780000
C        0.00070000       0.00050000      -0.01130000
N       -0.02270000      -0.60850000      -1.15930000
C       -0.00460000      -1.97420000      -1.22510000
N       -0.02530000      -2.64950000      -2.28780000
O        0.04130000      -2.70880000       0.03910000
C        0.06300000      -2.03540000       1.16480000
F        0.10370000      -2.83340000       2.20330000
C        0.04610000      -0.69280000       1.25020000
H        0.86910000       1.89380000       0.49770000
H       -0.05550000       1.87830000      -1.02950000
H       -0.89100000       1.86850000       0.54830000
H       -0.00540000      -3.64800000      -2.09090000
H        0.06560000      -0.18890000       2.20410000
