14
Properties=species:S:1:pos:R:3 gdb_11633=T pbc="F F F"
O       -0.03540000      -0.01580000       0.13010000
C        0.02100000       1.17770000      -0.03970000
C        1.28450000       1.95470000      -0.02020000
C        2.75020000       1.41790000      -0.01300000
C        2.94850000       2.97460000       0.01460000
C        1.78620000       3.04330000      -1.03800000
C        1.82170000       2.97560000       1.04760000
O        1.50140000       3.46510000       2.07980000
H       -0.89710000       1.78380000      -0.20660000
H        3.07450000       0.84660000       0.85660000
H        3.05240000       0.94530000      -0.94980000
H        3.88300000       3.52980000       0.01020000
H        2.04770000       2.63900000      -2.01850000
H        1.22180000       3.97390000      -1.11420000
