13
Properties=species:S:1:pos:R:3 gdb_20637=T pbc="F F F"
C       -0.03460000       1.52110000       0.06200000
C       -0.00230000       0.03290000      -0.05580000
C       -0.03790000      -0.80570000      -1.14940000
C        0.03050000      -2.11340000      -0.60880000
N        0.10170000      -2.09610000       0.72650000
N        0.08050000      -0.79160000       1.02580000
C        0.02700000      -3.34210000      -1.32700000
N        0.02140000      -4.31780000      -1.94880000
H        0.89090000       1.91240000       0.49910000
H       -0.15390000       1.97010000      -0.92550000
H       -0.86790000       1.85900000       0.68770000
H       -0.10320000      -0.52540000      -2.18720000
H        0.12470000      -0.52280000       1.99570000
