20
Properties=species:S:1:pos:R:3 gdb_91899=T pbc="F F F"
C       -0.10690000       1.51190000       0.08150000
C       -0.04130000       0.01290000       0.00430000
C       -0.14270000      -0.67880000      -1.13360000
C       -0.04380000      -2.18580000      -1.22210000
O        0.38530000      -2.60370000      -2.51480000
C        0.86730000      -2.76010000      -0.12070000
C        0.59160000      -2.13660000       1.24170000
N        1.52900000      -1.07580000       1.67480000
C        0.13790000      -0.72610000       1.28850000
H        0.81710000       1.91530000       0.51430000
H       -0.25070000       1.96170000      -0.90440000
H       -0.92810000       1.84260000       0.73070000
H       -0.30520000      -0.16910000      -2.08110000
H       -1.04810000      -2.62130000      -1.12690000
H        1.25730000      -2.22010000      -2.66340000
H        0.75810000      -3.84830000      -0.08750000
H        1.90610000      -2.54230000      -0.39330000
H        0.21420000      -2.80420000       2.01200000
H        1.60520000      -1.08160000       2.69020000
H       -0.53310000      -0.42960000       2.09370000
