20
Properties=species:S:1:pos:R:3 gdb_74998=T pbc="F F F"
C        0.03290000       1.47550000       0.02430000
C       -0.03460000      -0.02360000       0.04600000
N       -1.13450000      -0.64280000       0.17700000
C       -1.17600000      -2.08960000       0.09250000
C       -1.65180000      -2.56710000      -1.31520000
C       -0.17390000      -2.86080000      -1.69150000
C        0.19490000      -2.77710000      -0.18260000
C        1.37330000      -1.93590000       0.25380000
O        1.21340000      -0.55710000      -0.10670000
H        0.64000000       1.84210000       0.85850000
H        0.51400000       1.81760000      -0.89780000
H       -0.97290000       1.88830000       0.09020000
H       -1.75710000      -2.46820000       0.93840000
H       -2.25510000      -3.47700000      -1.25550000
H       -2.18730000      -1.81930000      -1.90250000
H        0.03430000      -3.80870000      -2.19240000
H        0.28190000      -2.05440000      -2.27290000
H        0.26130000      -3.76820000       0.27580000
H        1.49220000      -1.99290000       1.34500000
H        2.31240000      -2.25250000      -0.20990000
