20
Properties=species:S:1:pos:R:3 gdb_126304=T pbc="F F F"
C        0.04680000       1.56290000       0.15830000
C        0.00420000       0.03510000      -0.03140000
C       -1.38540000      -0.52330000      -0.09170000
C       -2.18050000      -0.80890000      -1.18740000
C       -3.39550000      -1.28370000      -0.64190000
N       -4.50830000      -1.76760000      -1.33410000
N       -3.36640000      -1.29090000       0.68670000
N       -2.12830000      -0.81710000       1.00740000
C       -1.72860000      -0.82470000       2.39530000
H        1.07990000       1.92430000       0.16930000
H       -0.48500000       2.06660000      -0.65410000
H       -0.42630000       1.86450000       1.09820000
H        0.51270000      -0.22540000      -0.96510000
H        0.57370000      -0.45070000       0.76970000
H       -1.91480000      -0.69600000      -2.22660000
H       -4.73590000      -1.21830000      -2.15210000
H       -5.31430000      -1.84000000      -0.72580000
H       -1.26230000      -1.77600000       2.68060000
H       -1.02520000      -0.01330000       2.59320000
H       -2.62170000      -0.67880000       3.00420000
