25
Properties=species:S:1:pos:R:3 gdb_122997=T pbc="F F F"
C       -0.17330000       1.55550000       0.03320000
C       -0.08340000       0.04980000       0.21780000
O       -1.34450000      -0.51600000      -0.06750000
C       -1.37460000      -1.91980000       0.07740000
C       -2.77680000      -2.40690000      -0.27840000
C       -2.98140000      -3.90130000      -0.08320000
C       -2.16180000      -4.80550000      -0.98710000
C       -3.27920000      -4.39090000       1.31660000
C       -4.37340000      -4.36500000       0.27490000
H        0.79150000       2.02560000       0.24650000
H       -0.45940000       1.79930000      -0.99400000
H       -0.92350000       1.98010000       0.70640000
H        0.68590000      -0.37620000      -0.44960000
H        0.22040000      -0.19520000       1.25040000
H       -0.61720000      -2.38380000      -0.57650000
H       -1.12360000      -2.20700000       1.11320000
H       -3.48940000      -1.85190000       0.34240000
H       -2.98900000      -2.13110000      -1.31940000
H       -1.08570000      -4.68970000      -0.81690000
H       -2.40780000      -5.85820000      -0.81570000
H       -2.35580000      -4.58660000      -2.04400000
H       -2.88420000      -5.35500000       1.61950000
H       -3.32370000      -3.66080000       2.11830000
H       -5.15490000      -3.61880000       0.37390000
H       -4.71480000      -5.31230000      -0.12960000
