17
Properties=species:S:1:pos:R:3 gdb_43223=T pbc="F F F"
O       -0.04040000       0.04420000       0.17080000
C       -0.00970000       1.24050000       0.14290000
C       -1.08830000       2.35410000      -0.03010000
O       -1.38320000       2.98140000       1.20600000
C       -0.18840000       3.17560000       1.96840000
C        0.97750000       3.45360000       1.01870000
C        0.47670000       4.41330000      -0.09630000
C        0.01580000       3.15180000      -0.83750000
C        1.07750000       2.28000000      -0.04910000
H       -2.03100000       2.11130000      -0.52020000
H       -0.37810000       4.02670000       2.62990000
H        0.01660000       2.28960000       2.58830000
H        1.89390000       3.69670000       1.55850000
H       -0.27860000       5.15330000       0.18210000
H        1.29950000       4.90450000      -0.62110000
H       -0.08880000       3.11310000      -1.92150000
H        2.07230000       2.01460000      -0.40430000
