16
Properties=species:S:1:pos:R:3 gdb_68495=T pbc="F F F"
C        0.04270000       1.48130000      -0.01100000
C       -0.03540000      -0.01070000       0.02580000
N        0.52320000      -0.90910000      -1.08810000
C        0.01430000      -1.91740000      -0.06580000
C        0.66490000      -1.00800000       1.02460000
C        2.10890000      -0.96320000       1.10620000
C        3.30160000      -0.91160000       1.24650000
C       -1.22830000      -1.00200000       0.01940000
O       -2.41320000      -1.02230000      -0.10830000
H        1.08510000       1.80840000      -0.06370000
H       -0.49400000       1.87760000      -0.87860000
H       -0.41180000       1.90580000       0.88920000
H       -0.07930000      -0.88730000      -1.91650000
H        0.13000000      -2.98960000      -0.20300000
H        0.20210000      -1.06850000       2.01310000
H        4.35770000      -0.87430000       1.35000000
