18
Properties=species:S:1:pos:R:3 gdb_129840=T pbc="F F F"
N        0.29230000       1.31370000       0.57630000
C       -0.00440000       0.01690000       0.14880000
C       -1.14910000      -0.75090000       0.22930000
C       -0.77980000      -2.01390000      -0.30290000
C       -1.65680000      -3.21980000      -0.46760000
C       -0.90500000      -4.47670000      -0.88830000
O       -1.86600000      -5.52080000      -0.99450000
N        0.49120000      -2.02970000      -0.68730000
N        0.94620000      -0.77820000      -0.40220000
H        0.75720000       1.87260000      -0.12990000
H       -0.53690000       1.80120000       0.88830000
H       -2.11300000      -0.44160000       0.60100000
H       -2.18450000      -3.42480000       0.47190000
H       -2.43930000      -3.01910000      -1.21100000
H       -0.39080000      -4.30110000      -1.84310000
H       -0.13120000      -4.71370000      -0.14380000
H       -1.40720000      -6.31600000      -1.27900000
H        1.92180000      -0.56960000      -0.52450000
