19
Properties=species:S:1:pos:R:3 gdb_71261=T pbc="F F F"
C       -0.03290000       1.53770000       0.07000000
C       -0.06600000       0.02740000       0.04090000
C        0.27410000      -0.70190000      -1.32190000
C       -0.91260000      -1.63290000      -1.08730000
C       -0.92070000      -2.16000000       0.33830000
C        0.34920000      -2.13250000       1.16820000
C        0.79990000      -0.66230000       1.09530000
O        1.68100000      -0.15340000       1.73890000
C       -1.40980000      -0.76110000       0.05220000
H        0.99920000       1.89540000       0.00670000
H       -0.60370000       1.96530000      -0.76000000
H       -0.45300000       1.92030000       1.00610000
H        0.09190000      -0.01760000      -2.15440000
H        1.27280000      -1.13940000      -1.43600000
H       -1.48770000      -2.12910000      -1.86020000
H       -1.66470000      -2.92200000       0.53990000
H        0.15860000      -2.39640000       2.21400000
H        1.15020000      -2.79010000       0.81290000
H       -2.39330000      -0.36990000       0.27680000
