13
Properties=species:S:1:pos:R:3 gdb_42559=T pbc="F F F"
O        0.07580000       0.07380000       0.24240000
C       -0.02340000       1.24610000       0.09950000
C       -1.09580000       2.27770000       0.05120000
C       -0.39980000       3.56090000       0.58660000
C       -0.14490000       3.10880000      -0.79840000
N        1.02820000       2.25410000      -0.28630000
C        1.01330000       3.11150000       0.98110000
C        2.00370000       4.18120000       0.93200000
N        2.76710000       5.04800000       0.91500000
H       -2.17270000       2.18860000       0.00730000
H       -0.98030000       4.40100000       0.94620000
H       -0.24370000       3.51020000      -1.79430000
H        1.14400000       2.53080000       1.90100000
