15
Properties=species:S:1:pos:R:3 gdb_133092=T pbc="F F F"
O        0.02740000       1.41330000       0.00660000
C       -0.00910000      -0.00050000       0.00240000
C       -1.44200000      -0.47420000       0.01310000
C       -2.51820000       0.40590000       0.02360000
C       -3.80660000      -0.12850000       0.03290000
C       -3.97820000      -1.50490000       0.03140000
C       -2.81770000      -2.27510000       0.02050000
F       -2.93900000      -3.60160000       0.01870000
N       -1.59370000      -1.80810000       0.01160000
H        0.94730000       1.69030000      -0.00020000
H        0.48530000      -0.42240000      -0.88670000
H        0.50050000      -0.42810000       0.88000000
H       -2.33970000       1.47200000       0.02440000
H       -4.67170000       0.52640000       0.04120000
H       -4.95170000      -1.97780000       0.03830000
