15
Properties=species:S:1:pos:R:3 gdb_128673=T pbc="F F F"
C       -0.00090000       1.39030000       0.20700000
O       -0.03620000      -0.03020000       0.09370000
C       -1.24290000      -0.58650000      -0.07140000
N       -2.31140000       0.14160000      -0.12250000
N       -3.47390000      -0.53630000      -0.29250000
C       -3.61180000      -1.90430000      -0.41230000
N       -4.77010000      -2.43410000      -0.57030000
C       -2.30490000      -2.57050000      -0.33250000
N       -1.18240000      -1.96410000      -0.17220000
H        1.05070000       1.64880000       0.33220000
H       -0.40630000       1.86440000      -0.69240000
H       -0.58250000       1.72810000       1.07060000
H       -4.30410000       0.03570000      -0.33170000
H       -4.69010000      -3.44660000      -0.64110000
H       -2.29570000      -3.65760000      -0.41610000
