18
Properties=species:S:1:pos:R:3 gdb_95195=T pbc="F F F"
O        0.02520000       1.51090000      -0.18580000
C        0.03700000       0.10270000      -0.02500000
C       -1.37520000      -0.50230000       0.11340000
C       -2.26040000      -0.25700000      -1.12680000
C       -1.51710000      -0.37520000      -2.45330000
N       -0.66380000       0.76100000      -2.80690000
C       -0.02270000      -0.54430000      -2.49690000
C        0.72610000      -0.60650000      -1.19880000
O        1.74950000      -1.24170000      -1.09030000
H       -0.25840000       1.68730000      -1.09860000
H        0.62410000      -0.11240000       0.87210000
H       -1.26710000      -1.58190000       0.28120000
H       -1.85560000      -0.08530000       1.00400000
H       -3.09450000      -0.96540000      -1.12030000
H       -2.70040000       0.74470000      -1.07860000
H       -2.06410000      -0.84080000      -3.26950000
H       -0.64860000       0.92730000      -3.80870000
H        0.42570000      -1.10820000      -3.30920000
