14
Properties=species:S:1:pos:R:3 gdb_132780=T pbc="F F F"
N        0.00010000       1.42410000      -0.14720000
C        0.02070000       0.03700000      -0.05660000
C       -1.17930000      -0.68530000      -0.08490000
O       -2.35990000      -0.01370000      -0.13340000
C       -1.10660000      -2.07040000      -0.05320000
F       -2.27320000      -2.74650000      -0.07660000
C        0.11220000      -2.72350000       0.00770000
N        1.25910000      -2.04260000       0.04190000
C        1.20320000      -0.71150000       0.01100000
H        0.80280000       1.88760000       0.25220000
H       -0.87120000       1.84590000       0.14050000
H       -3.07380000      -0.66320000      -0.12980000
H        0.15090000      -3.80820000       0.03100000
H        2.15570000      -0.18510000       0.03930000
