20
Properties=species:S:1:pos:R:3 gdb_116689=T pbc="F F F"
C        0.02870000       1.29430000      -0.24340000
O       -0.05520000      -0.01370000       0.30450000
C       -1.19240000      -0.68700000       0.02600000
N       -1.35150000      -1.86120000       0.45510000
C       -2.53620000      -2.55630000       0.16100000
C       -3.09430000      -3.51340000       1.18770000
C       -2.67500000      -4.06160000      -0.14300000
C       -3.75390000      -3.75900000      -1.18760000
C       -3.61410000      -2.22920000      -0.89030000
H        0.98750000       1.70250000       0.07850000
H       -0.00170000       1.27540000      -1.34020000
H       -0.77730000       1.94010000       0.12730000
H       -1.91820000      -0.12470000      -0.57670000
H       -2.41300000      -3.70900000       2.00810000
H       -4.14660000      -3.47370000       1.46460000
H       -1.89030000      -4.80200000      -0.23600000
H       -3.45340000      -4.01020000      -2.20700000
H       -4.73700000      -4.20190000      -0.99480000
H       -4.50420000      -1.70280000      -0.52920000
H       -3.21710000      -1.68940000      -1.75420000
