15
Properties=species:S:1:pos:R:3 gdb_5145=T pbc="F F F"
C       -0.31300000      -0.93970000       0.92960000
C       -0.09010000       0.01250000       0.23070000
C        0.18340000       1.16940000      -0.61660000
C        1.49310000       1.85860000      -0.31890000
C        2.41550000       1.50970000       0.63980000
N        3.45680000       2.40090000       0.56820000
C        3.21680000       3.31740000      -0.42260000
C        2.00500000       3.00770000      -0.99240000
H       -0.51940000      -1.78220000       1.54160000
H        0.16150000       0.84970000      -1.66810000
H       -0.64520000       1.88460000      -0.51530000
H        2.40590000       0.70500000       1.35590000
H        4.27160000       2.38250000       1.15510000
H        3.92140000       4.10490000      -0.63680000
H        1.53210000       3.54190000      -1.80300000
