17
Properties=species:S:1:pos:R:3 gdb_87930=T pbc="F F F"
C        0.03020000       1.53170000      -0.09820000
C       -0.02090000       0.03590000       0.08300000
O        1.21500000      -0.68720000      -0.04470000
C        0.56670000      -0.66530000       1.22860000
C        1.30670000       0.02040000       2.37460000
O        1.58650000      -1.00520000       3.33640000
C        0.91530000      -2.16180000       3.06660000
O        1.00400000      -3.12660000       3.76500000
C        0.08460000      -1.98090000       1.80060000
H        0.88140000       1.97230000       0.42650000
H        0.12060000       1.78130000      -1.16010000
H       -0.88960000       1.99310000       0.27680000
H       -0.86060000      -0.45590000      -0.41290000
H        2.25170000       0.45200000       2.03840000
H        0.70400000       0.79780000       2.85860000
H       -0.97400000      -1.95740000       2.08110000
H        0.23560000      -2.81710000       1.11610000
