20
Properties=species:S:1:pos:R:3 gdb_106530=T pbc="F F F"
O        0.01920000       1.42620000      -0.08590000
C        0.03330000       0.02560000       0.11420000
C       -1.35400000      -0.55970000      -0.03170000
C       -2.09530000      -0.61290000      -1.38980000
N       -2.83510000      -1.83030000      -0.88000000
C       -1.64140000      -2.07400000       0.01620000
C       -3.93240000      -1.35770000      -0.01300000
C       -3.57250000      -0.04480000       0.73370000
O       -2.16590000       0.08620000       0.95850000
H       -0.68790000       1.75620000       0.48220000
H        0.69840000      -0.40430000      -0.64180000
H        0.43320000      -0.24010000       1.10670000
H       -2.71260000       0.23280000      -1.69900000
H       -1.43510000      -0.89830000      -2.21300000
H       -0.90140000      -2.68640000      -0.50850000
H       -1.86670000      -2.50720000       0.99400000
H       -4.82620000      -1.18780000      -0.62390000
H       -4.16660000      -2.16340000       0.69010000
H       -3.92560000       0.82030000       0.15660000
H       -4.05380000       0.00250000       1.71510000
