20
Properties=species:S:1:pos:R:3 gdb_76859=T pbc="F F F"
C       -0.32160000       1.56750000      -0.05990000
C        0.00690000       0.08260000      -0.00100000
C        1.12890000      -0.50670000      -0.95230000
O        1.90660000       0.37520000      -1.70580000
C        1.78760000      -1.21520000       0.29060000
C        2.90810000      -0.46910000       1.04550000
N        2.66480000       0.98840000       0.88590000
C        1.90640000       0.22260000       1.91040000
C        0.73990000      -0.53160000       1.22860000
H        0.56300000       2.18480000       0.10520000
H       -0.73880000       1.82910000      -1.03780000
H       -1.06550000       1.82830000       0.70150000
H       -0.91380000      -0.48950000      -0.16470000
H        0.71580000      -1.23050000      -1.66080000
H        2.30920000       0.97270000      -1.05490000
H        1.90080000      -2.29850000       0.25690000
H        3.90750000      -0.82410000       1.26580000
H        3.41420000       1.47890000       1.37100000
H        1.96960000       0.53060000       2.94730000
H        0.15230000      -1.12420000       1.93060000
