18
Properties=species:S:1:pos:R:3 gdb_69458=T pbc="F F F"
C        0.11590000       1.51400000       0.09210000
C       -0.03660000       0.01930000       0.10220000
C       -1.28380000      -0.63710000      -0.46530000
N       -1.19770000      -2.03070000      -0.00830000
C       -0.40130000      -2.10950000       1.21960000
C        0.40000000      -3.40640000       1.23280000
O        0.52710000      -4.11430000       2.19790000
C        0.50210000      -0.88760000       1.12460000
O        1.14980000      -0.75390000      -0.14730000
H        1.04920000       1.80490000       0.57950000
H        0.13770000       1.89240000      -0.93560000
H       -0.71900000       1.99640000       0.61060000
H       -2.16450000      -0.09560000      -0.08180000
H       -1.31450000      -0.59360000      -1.56090000
H       -2.10110000      -2.47390000       0.08490000
H       -0.97080000      -2.04980000       2.16060000
H        0.86160000      -3.64070000       0.25070000
H        1.07060000      -0.56390000       1.99180000
