17
Properties=species:S:1:pos:R:3 gdb_84181=T pbc="F F F"
C       -0.15200000       1.59570000       0.05390000
C        0.01670000       0.06950000      -0.02380000
C        0.79390000      -0.44770000      -1.20160000
C        1.82940000      -1.23340000      -0.85530000
C        1.93320000      -1.39130000       0.64780000
C        0.81070000      -0.48840000       1.17510000
O        0.59390000      -0.23450000       2.33030000
C        2.73650000      -1.86510000      -1.73860000
C        3.53290000      -2.42060000      -2.45230000
H        0.81680000       2.10060000      -0.01050000
H       -0.78180000       1.96170000      -0.76200000
H       -0.61720000       1.86570000       1.00530000
H       -0.98670000      -0.38360000       0.00940000
H        0.53710000      -0.20500000      -2.22600000
H        1.77450000      -2.42550000       0.97810000
H        2.90300000      -1.08290000       1.05450000
H        4.22780000      -2.90440000      -3.09310000
