18
Properties=species:S:1:pos:R:3 gdb_94422=T pbc="F F F"
O        0.05920000       1.41690000       0.07020000
C        0.11540000       0.00510000       0.10240000
C        0.09320000      -0.57940000       1.54180000
C       -1.45790000      -0.57870000       1.48140000
C       -1.32750000      -0.53980000      -0.07130000
N       -2.30520000       0.04020000      -1.00120000
C       -2.71130000      -1.27890000      -1.55060000
C       -1.53070000      -1.88740000      -0.77450000
O       -0.99260000      -2.95370000      -0.72610000
H        0.91310000       1.75110000       0.36410000
H        0.87230000      -0.38630000      -0.58980000
H        0.49800000      -1.59410000       1.56640000
H        0.56770000       0.02680000       2.31680000
H       -1.99790000      -1.41770000       1.92590000
H       -1.87290000       0.36330000       1.84900000
H       -3.04150000       0.58320000      -0.56800000
H       -3.67940000      -1.67200000      -1.20960000
H       -2.66660000      -1.35480000      -2.64240000
