22
Properties=species:S:1:pos:R:3 gdb_94647=T pbc="F F F"
C       -0.46390000       1.49360000      -0.09670000
C        0.03610000       0.06040000       0.02060000
C        1.34350000      -0.35670000      -0.70930000
C        1.69470000      -1.25800000       0.50400000
C        0.65610000      -0.46880000       1.35940000
C        1.27580000       0.60300000       2.25670000
N        1.95530000       0.02650000       3.40810000
C        1.59100000       0.27710000       4.69370000
O        0.69860000       1.02140000       5.04180000
H        0.31070000       2.22020000       0.16940000
H       -0.77510000       1.70820000      -1.12510000
H       -1.32750000       1.67300000       0.55320000
H       -0.76860000      -0.62370000      -0.27160000
H        1.24750000      -0.83580000      -1.68660000
H        2.03620000       0.48530000      -0.80890000
H        1.39340000      -2.29720000       0.34840000
H        2.73600000      -1.25410000       0.84320000
H       -0.01290000      -1.08070000       1.97180000
H        1.98220000       1.22310000       1.68930000
H        0.50860000       1.26510000       2.66380000
H        2.70150000      -0.63160000       3.24940000
H        2.22000000      -0.28660000       5.41190000
