17
Properties=species:S:1:pos:R:3 gdb_43791=T pbc="F F F"
N       -0.03000000       1.11140000      -0.47580000
C       -0.04480000      -0.05380000      -0.01380000
O        0.94920000      -0.84240000       0.54010000
C        0.03400000      -1.96910000       0.67100000
C        0.44190000      -3.36140000       0.35950000
C        0.12050000      -2.93940000       1.79110000
C       -1.08550000      -1.11850000       0.12430000
C       -2.51290000      -0.94780000       0.47250000
N       -2.10980000      -1.50070000      -0.83070000
H        0.89600000       1.53600000      -0.41850000
H       -0.27010000      -3.97890000      -0.17750000
H        1.48380000      -3.53450000       0.11400000
H        0.95410000      -2.83140000       2.47630000
H       -0.80210000      -3.28460000       2.24630000
H       -2.99010000      -1.65920000       1.14070000
H       -2.89000000       0.06990000       0.52370000
H       -2.17440000      -0.79060000      -1.55800000
