16
Properties=species:S:1:pos:R:3 gdb_66844=T pbc="F F F"
O       -0.10990000       1.28980000       0.02230000
C        0.00520000      -0.07530000       0.09060000
C        0.23350000      -1.00700000      -1.13700000
N        0.91260000      -2.19710000      -0.54980000
C        1.89160000      -1.61290000       0.44630000
C        0.69010000      -0.96290000       1.16120000
C       -0.17860000      -2.11510000       0.54400000
C       -1.01860000      -1.11210000      -0.29870000
O       -2.35130000      -0.98800000      -0.56850000
H        0.70760000       1.65560000      -0.33460000
H        0.39900000      -0.63590000      -2.14150000
H        2.34860000      -2.42500000       1.01850000
H        2.67200000      -0.97620000       0.01610000
H        0.66980000      -0.65090000       2.20460000
H       -0.49450000      -3.02520000       1.05110000
H       -2.59070000      -1.63610000      -1.24130000
