19
Properties=species:S:1:pos:R:3 gdb_120238=T pbc="F F F"
C        0.07470000       1.54420000       0.02280000
C       -0.12470000       0.04800000       0.18830000
O        0.87960000      -0.44030000       1.06720000
C        0.90280000      -1.83200000       1.21010000
C        2.03720000      -2.37640000       2.06340000
C        1.86080000      -2.01430000       3.47700000
N        1.05980000      -3.15880000       2.95490000
C       -0.03040000      -2.53790000       2.22730000
N       -1.25450000      -2.70740000       2.45340000
H        1.06250000       1.75480000      -0.39640000
H       -0.68490000       1.95680000      -0.64760000
H       -0.00340000       2.05020000       0.98900000
H       -1.12590000      -0.16170000       0.59460000
H       -0.05120000      -0.46660000      -0.78400000
H        0.84480000      -2.33350000       0.23090000
H        2.93070000      -2.85380000       1.68090000
H        2.62490000      -2.33310000       4.17780000
H        1.34540000      -1.09570000       3.74050000
H       -1.82530000      -2.19560000       1.77940000
