24
Properties=species:S:1:pos:R:3 gdb_88689=T pbc="F F F"
C        2.74290000      -0.28270000      -0.00440000
N        1.62850000      -1.17310000       0.28180000
C        1.86080000      -2.28020000       1.20180000
C        0.98290000      -1.13980000       1.60070000
C        1.39390000      -0.19220000       2.68370000
C        0.62110000       1.09070000       2.93020000
C        0.59700000      -0.00800000       3.96560000
C       -0.69690000      -0.76970000       4.18970000
C        1.39880000       0.20610000       5.23700000
H        3.46780000      -0.16720000       0.81670000
H        3.28420000      -0.67220000      -0.87280000
H        2.35870000       0.70950000      -0.26160000
H        1.44350000      -3.24290000       0.91580000
H        2.83440000      -2.33890000       1.68990000
H       -0.09190000      -1.29060000       1.52370000
H        2.46820000      -0.11630000       2.82220000
H        1.17870000       1.99820000       3.13910000
H       -0.27780000       1.24870000       2.34170000
H       -1.30010000      -0.84900000       3.28230000
H       -0.50340000      -1.78560000       4.55410000
H       -1.30870000      -0.26050000       4.94360000
H        0.81610000       0.76670000       5.97800000
H        1.68110000      -0.75030000       5.69310000
H        2.31800000       0.76770000       5.04290000
