23
Properties=species:S:1:pos:R:3 gdb_58766=T pbc="F F F"
C        0.07630000       1.50770000       0.06130000
C       -0.05340000      -0.02110000      -0.02210000
C       -1.52500000      -0.45730000      -0.09100000
C        0.73620000      -0.57400000      -1.19030000
C        2.27580000      -0.43450000      -1.37100000
C        2.00170000      -1.50620000      -2.46980000
C        0.92870000      -2.08730000      -1.49910000
C        1.09970000      -0.69830000      -3.40910000
O        0.22980000      -0.06390000      -2.44740000
H        1.12130000       1.81570000       0.16830000
H       -0.32140000       1.97560000      -0.84350000
H       -0.47740000       1.89570000       0.92210000
H        0.39300000      -0.45500000       0.88330000
H       -1.99470000      -0.07770000      -1.00260000
H       -1.61990000      -1.54780000      -0.09230000
H       -2.08220000      -0.07340000       0.76950000
H        2.65920000       0.54070000      -1.68170000
H        2.84500000      -0.82910000      -0.52720000
H        2.78840000      -2.11270000      -2.91710000
H        1.36650000      -2.64320000      -0.66780000
H        0.07900000      -2.62510000      -1.92710000
H        1.63880000       0.06060000      -3.98920000
H        0.51320000      -1.32040000      -4.09630000
