20
Properties=species:S:1:pos:R:3 gdb_12516=T pbc="F F F"
C       -0.20750000       1.52380000      -0.00590000
C        0.01190000       0.03310000       0.00710000
C       -0.03430000      -0.68250000      -1.12020000
C        0.14790000      -2.17860000      -1.24690000
O        1.33580000      -2.70880000      -0.68180000
C        1.31710000      -2.84270000       0.72380000
C        1.46550000      -1.52380000       1.48440000
C        0.26100000      -0.57530000       1.37680000
H        0.67470000       2.05580000       0.37400000
H       -0.42530000       1.89740000      -1.00970000
H       -1.04130000       1.80270000       0.65210000
H       -0.24100000      -0.15970000      -2.05210000
H       -0.72590000      -2.70450000      -0.81980000
H        0.19040000      -2.44470000      -2.30740000
H        0.39130000      -3.35430000       1.04340000
H        2.15680000      -3.50230000       0.96800000
H        1.62570000      -1.76810000       2.54280000
H        2.37010000      -1.01620000       1.13060000
H        0.39090000       0.23460000       2.10300000
H       -0.64400000      -1.11420000       1.69790000
