15
Properties=species:S:1:pos:R:3 gdb_86859=T pbc="F F F"
O        0.41850000       0.78960000       0.74200000
C       -0.15010000      -0.23590000      -0.01970000
C       -1.60690000       0.02340000      -0.42080000
C       -1.71820000      -0.80350000      -1.72030000
O       -0.40050000      -0.77930000      -2.30980000
C        0.51640000      -0.39120000      -1.37360000
N        1.73260000      -0.14410000      -1.57570000
C       -2.12950000      -2.19640000      -1.48070000
N       -2.46990000      -3.28240000      -1.28380000
H        1.33050000       0.87890000       0.42760000
H       -0.08190000      -1.20480000       0.50410000
H       -2.33950000      -0.27170000       0.32990000
H       -1.73010000       1.08510000      -0.64970000
H       -2.40490000      -0.36080000      -2.44560000
H        2.00940000      -0.26860000      -2.54890000
