19
Properties=species:S:1:pos:R:3 gdb_105463=T pbc="F F F"
O       -0.23600000       1.43740000      -0.77450000
C       -0.04310000       0.14940000      -0.22290000
C       -1.36420000      -0.54970000       0.01210000
C       -2.03350000      -1.28570000      -1.10490000
C       -1.45690000      -2.05170000       0.07070000
O       -2.24610000       0.20870000       0.81120000
C       -1.95290000       0.17370000       2.20720000
C       -2.96170000       0.93420000       2.93080000
C       -3.77920000       1.55860000       3.55000000
H       -0.99960000       1.81150000      -0.31820000
H        0.56050000      -0.42720000      -0.93150000
H        0.53130000       0.20360000       0.71790000
H       -3.11270000      -1.20580000      -1.15900000
H       -1.52590000      -1.33160000      -2.06160000
H       -0.55280000      -2.63380000      -0.07310000
H       -2.16400000      -2.48180000       0.77130000
H       -1.93740000      -0.86680000       2.56360000
H       -0.95820000       0.59630000       2.41280000
H       -4.50500000       2.11130000       4.09370000
