19
Properties=species:S:1:pos:R:3 gdb_69432=T pbc="F F F"
C        0.21700000       1.48700000       0.13700000
C        0.13560000      -0.01630000       0.05210000
C       -0.97680000      -0.78950000       0.71890000
C        0.44220000      -0.94260000       1.20730000
C        1.21380000      -2.11770000       0.61310000
O        0.91810000      -2.07650000      -0.78830000
C        0.73170000      -0.71190000      -1.16290000
C        2.65300000      -2.01050000       0.88140000
C        3.83110000      -1.91470000       1.09990000
H        1.25040000       1.83540000       0.02780000
H       -0.38040000       1.96330000      -0.64940000
H       -0.15880000       1.84890000       1.09880000
H       -1.65580000      -0.23060000       1.35400000
H       -1.42940000      -1.61960000       0.18510000
H        0.73580000      -0.57140000       2.18130000
H        0.85050000      -3.08980000       0.96710000
H        0.08370000      -0.71110000      -2.04580000
H        1.69000000      -0.23990000      -1.43110000
H        4.87360000      -1.84170000       1.28970000
