15
Properties=species:S:1:pos:R:3 gdb_31946=T pbc="F F F"
O       -0.18210000       1.44210000       0.07920000
C       -0.01660000       0.03480000       0.00220000
C       -1.38190000      -0.57540000       0.02120000
N       -1.65710000      -1.87220000       0.03680000
C       -3.01640000      -1.94720000       0.04080000
C       -3.58570000      -0.68440000       0.02920000
N       -2.49990000       0.17910000       0.01500000
C       -4.96320000      -0.23510000       0.03160000
O       -5.92970000      -0.96740000       0.04270000
H        0.68000000       1.85870000       0.00060000
H        0.50190000      -0.26740000      -0.92000000
H        0.56590000      -0.36090000       0.84710000
H       -3.53960000      -2.89090000       0.05300000
H       -2.50290000       1.18700000       0.01140000
H       -5.08250000       0.87440000       0.02200000
