23
Properties=species:S:1:pos:R:3 gdb_58108=T pbc="F F F"
C        0.01480000       1.56750000      -0.05080000
C       -0.00940000       0.03020000      -0.04100000
C       -1.45790000      -0.46630000       0.07610000
C        0.71660000      -0.57540000      -1.28270000
C        0.68170000      -2.10740000      -1.27440000
O        0.09090000      -0.15630000      -2.49070000
C        2.17890000      -0.11990000      -1.30320000
C        2.96600000      -0.12150000      -2.53970000
O        2.43670000       1.10390000      -2.00540000
H        1.02780000       1.97350000      -0.10710000
H       -0.55140000       1.95720000      -0.90360000
H       -0.45430000       1.95740000       0.85770000
H        0.54740000      -0.31260000       0.84330000
H       -2.00080000      -0.26780000      -0.85320000
H       -1.51730000      -1.53800000       0.28320000
H       -1.97400000       0.05340000       0.88940000
H       -0.34160000      -2.46740000      -1.39590000
H        1.27710000      -2.50180000      -2.10190000
H        1.08060000      -2.50660000      -0.33630000
H        0.44390000       0.72410000      -2.68170000
H        2.71060000      -0.20840000      -0.35540000
H        4.04940000      -0.21200000      -2.49270000
H        2.49820000      -0.45490000      -3.46280000
