19
Properties=species:S:1:pos:R:3 gdb_121713=T pbc="F F F"
O       -0.17990000       1.62120000       0.06440000
C       -0.12240000       0.20520000       0.02390000
C       -1.55300000      -0.31730000       0.01890000
C       -1.60640000      -1.84270000      -0.02340000
C       -3.01210000      -2.40750000      -0.02990000
N       -4.03940000      -1.66850000      -0.00250000
N       -3.01460000      -3.82690000      -0.06950000
C       -4.10970000      -4.65310000      -0.08520000
O       -5.26700000      -4.29910000      -0.06790000
H        0.71970000       1.96060000       0.06660000
H        0.40890000      -0.14700000      -0.87700000
H        0.42120000      -0.19730000       0.89590000
H       -2.07570000       0.04850000       0.90700000
H       -2.08750000       0.09730000      -0.84030000
H       -1.08000000      -2.21860000      -0.91380000
H       -1.06840000      -2.26750000       0.83760000
H       -4.89250000      -2.22790000      -0.01240000
H       -2.11470000      -4.28390000      -0.08810000
H       -3.81060000      -5.71890000      -0.11710000
