18
Properties=species:S:1:pos:R:3 gdb_92315=T pbc="F F F"
O        0.51130000       0.64010000      -1.04930000
C        0.09720000      -0.30010000      -0.10310000
C        0.15140000       0.05210000       1.41880000
C       -1.24200000      -0.62440000       1.60430000
C       -2.36560000       0.24490000       2.19500000
N       -2.76180000       1.06260000       1.05600000
C       -2.23730000       0.69460000      -0.14650000
O       -2.35210000       1.30270000      -1.19810000
C       -1.42220000      -0.57720000       0.06380000
H       -0.27370000       1.10970000      -1.36880000
H        0.63470000      -1.23710000      -0.29130000
H        0.98430000      -0.35630000       1.99420000
H        0.10940000       1.13440000       1.57290000
H       -1.19650000      -1.61540000       2.05480000
H       -3.20470000      -0.36010000       2.56350000
H       -2.01020000       0.86840000       3.02350000
H       -3.30620000       1.90710000       1.13600000
H       -1.85970000      -1.40910000      -0.49170000
