18
Properties=species:S:1:pos:R:3 gdb_29195=T pbc="F F F"
C       -0.03440000       1.53070000      -0.02980000
C       -0.00860000       0.02660000       0.00310000
C       -0.02900000      -0.68750000      -1.13680000
O       -0.00850000      -2.03680000      -1.20080000
C        0.03710000      -2.81230000      -0.04020000
N        0.05590000      -4.08150000      -0.11550000
C        0.06010000      -2.07320000       1.20300000
C        0.03910000      -0.72150000       1.25340000
C        0.06400000       0.01430000       2.56450000
H        0.85310000       1.96410000       0.44600000
H       -0.06970000       1.89660000      -1.05950000
H       -0.90720000       1.93500000       0.49600000
H       -0.06430000      -0.24910000      -2.12780000
H        0.03340000      -4.38320000      -1.08980000
H        0.09540000      -2.67880000       2.10040000
H        0.09950000      -0.68180000       3.40500000
H        0.93450000       0.67730000       2.63160000
H       -0.82280000       0.64800000       2.68140000
