13
Properties=species:S:1:pos:R:3 gdb_20324=T pbc="F F F"
C       -0.21360000      -1.01410000      -0.72880000
C       -0.05770000       0.02930000      -0.15460000
C        0.13180000       1.30580000       0.52730000
C        1.46250000       1.94700000       0.22880000
N        2.16390000       2.46590000       1.20820000
O        3.30270000       3.00120000       0.61490000
C        3.24600000       2.77940000      -0.70610000
C        2.10950000       2.11560000      -1.02970000
H       -0.35280000      -1.94240000      -1.22530000
H       -0.67150000       1.99480000       0.23320000
H        0.04870000       1.17990000       1.61200000
H        4.08290000       3.14650000      -1.27990000
H        1.77730000       1.78180000      -1.99780000
