16
Properties=species:S:1:pos:R:3 gdb_45038=T pbc="F F F"
O       -0.03450000       0.09850000       0.62930000
C       -0.05230000       1.16860000       0.07640000
C       -1.36690000       1.77270000      -0.43510000
N       -1.41600000       3.19340000      -0.76220000
C       -0.83540000       4.14210000       0.15810000
C       -0.16660000       3.86580000      -1.16280000
C        1.11110000       3.09530000      -1.18840000
O        1.98840000       3.34980000      -1.98230000
C        1.23430000       1.95520000      -0.18790000
H       -1.61950000       1.21270000      -1.34630000
H       -2.14980000       1.54800000       0.29510000
H       -1.37530000       5.07750000       0.27520000
H       -0.35220000       3.78320000       1.06490000
H       -0.26320000       4.58600000      -1.96960000
H        1.54650000       2.37210000       0.77980000
H        2.02920000       1.27390000      -0.50030000
