18
Properties=species:S:1:pos:R:3 gdb_23325=T pbc="F F F"
O       -0.13300000       1.34350000      -0.00030000
N        0.01130000      -0.05810000      -0.01640000
C       -1.11890000      -0.63230000       0.00240000
C       -2.52340000      -0.06320000       0.06050000
C       -3.32470000      -1.38490000      -0.00280000
C       -3.23850000      -1.99010000      -1.42450000
C       -1.78230000      -2.54810000      -1.43040000
C       -1.30470000      -2.13640000      -0.01420000
O       -2.50060000      -2.27640000       0.76990000
H        0.78300000       1.64170000       0.01140000
H       -2.68510000       0.45870000       1.00900000
H       -2.72790000       0.64130000      -0.75020000
H       -4.32270000      -1.34460000       0.43210000
H       -3.97130000      -2.79070000      -1.54480000
H       -3.41800000      -1.24740000      -2.20590000
H       -1.77150000      -3.63620000      -1.52570000
H       -1.15560000      -2.12680000      -2.21920000
H       -0.48920000      -2.71820000       0.41000000
