11
Properties=species:S:1:pos:R:3 gdb_21647=T pbc="F F F"
N       -0.04810000       1.34520000       0.14580000
C        0.00850000      -0.02190000       0.04910000
N       -1.08240000      -0.79140000       0.01590000
N       -0.54850000      -2.03320000      -0.01120000
C        0.79900000      -1.96310000      -0.00140000
N        1.19100000      -0.69710000       0.03600000
C        1.62800000      -3.11560000      -0.02950000
N        2.26730000      -4.07960000      -0.05470000
H        0.77960000       1.81580000      -0.18640000
H       -0.91240000       1.75720000      -0.17110000
H       -1.14440000      -2.84500000      -0.03830000
