15
Properties=species:S:1:pos:R:3 gdb_24573=T pbc="F F F"
O        0.55470000       1.11210000       0.60570000
C        1.33610000       2.08450000       0.06460000
C        1.25640000       2.78710000      -1.07370000
N        0.37380000       2.76680000      -2.14660000
C        0.29110000       1.82950000      -3.00360000
C        1.05230000       0.55500000      -3.00720000
N        0.91570000      -0.41910000      -2.19970000
C       -0.03450000      -0.48570000      -1.18820000
C       -0.18870000       0.16590000      -0.02740000
H        2.05620000       2.40760000       0.80750000
H        1.93860000       3.63340000      -1.11880000
H       -0.38880000       1.98540000      -3.84730000
H        1.78580000       0.43580000      -3.81110000
H       -0.71110000      -1.32810000      -1.31470000
H       -0.95490000      -0.18880000       0.65230000
