22
Properties=species:S:1:pos:R:3 gdb_40277=T pbc="F F F"
C       -0.50060000       1.52710000       0.02330000
N        0.94360000       1.29630000       0.16440000
C        0.01910000       0.12890000       0.02970000
C       -0.14670000      -0.66360000       1.31280000
C        0.87840000      -1.77810000       1.55410000
C        0.67970000      -3.01100000       0.66520000
C        1.12890000      -2.85270000      -0.79220000
C        0.49380000      -1.77040000      -1.62750000
C        0.04770000      -0.55600000      -1.29220000
H       -0.98800000       1.92000000       0.91190000
H       -0.88020000       1.93090000      -0.91210000
H        1.40490000       1.46190000      -0.72770000
H       -0.09260000       0.05320000       2.13850000
H       -1.15690000      -1.09530000       1.33030000
H        1.89310000      -1.37770000       1.42980000
H        0.79760000      -2.08930000       2.60230000
H        1.23730000      -3.85390000       1.09090000
H       -0.37930000      -3.30100000       0.68870000
H        2.21920000      -2.69310000      -0.80920000
H        0.97690000      -3.81010000      -1.30560000
H        0.45190000      -2.00830000      -2.68960000
H       -0.30510000       0.06920000      -2.11240000
