16
Properties=species:S:1:pos:R:3 gdb_60813=T pbc="F F F"
N        0.05730000       1.29090000       0.00190000
C        0.09710000      -0.05650000      -0.02020000
O        1.11450000      -0.72530000      -0.12680000
C       -1.26020000      -0.78840000       0.05280000
O       -1.01940000      -2.16530000       0.06550000
C       -2.07430000      -0.39500000       1.31660000
O       -2.40980000       0.97090000       1.31370000
C       -3.34390000      -1.22560000       1.37330000
O       -4.42650000      -0.68680000       1.38010000
H        0.93150000       1.79060000       0.03990000
H       -0.79620000       1.74690000       0.29420000
H       -1.85450000      -0.49370000      -0.82710000
H       -0.04980000      -2.23750000      -0.02440000
H       -1.46550000      -0.64680000       2.19940000
H       -3.38300000       0.99480000       1.29520000
H       -3.22060000      -2.32060000       1.39240000
