16
Properties=species:S:1:pos:R:3 gdb_63451=T pbc="F F F"
C       -0.07990000       1.53460000      -0.02060000
C       -0.07690000       0.02470000       0.04170000
C       -1.24920000      -0.66570000      -0.61750000
O        1.19580000      -0.59480000      -0.16660000
C        0.65840000      -0.65760000       1.16470000
C        1.34410000       0.08430000       2.19350000
C        1.90430000       0.68350000       3.07070000
C        0.22590000      -1.98150000       1.58840000
N       -0.12900000      -3.02460000       1.93640000
H        0.78910000       1.95590000       0.48530000
H       -0.06570000       1.85370000      -1.06780000
H       -0.98780000       1.93380000       0.44170000
H       -1.27290000      -0.40190000      -1.67990000
H       -1.17930000      -1.75080000      -0.53160000
H       -2.19020000      -0.33580000      -0.16690000
H        2.40570000       1.21250000       3.84410000
