17
Properties=species:S:1:pos:R:3 gdb_82371=T pbc="F F F"
O        0.25460000       1.14830000       0.53130000
C       -0.00770000      -0.19130000       0.14980000
C       -1.47590000      -0.37620000      -0.21010000
O       -1.85120000       0.60810000      -1.18910000
C       -1.61180000      -0.74270000      -1.62300000
C       -0.25400000      -0.93740000      -2.26300000
C        0.77590000      -0.63830000      -1.14610000
C        1.82930000       0.39170000      -1.51640000
O        1.89770000       0.94850000      -2.58230000
H       -0.25470000       1.69970000      -0.07940000
H        0.27380000      -0.80790000       1.00740000
H       -2.21850000      -0.58570000       0.55510000
H       -2.48910000      -1.25460000      -2.01010000
H       -0.15580000      -1.96160000      -2.63510000
H       -0.11100000      -0.26110000      -3.11070000
H        1.33420000      -1.55010000      -0.89730000
H        2.56770000       0.59580000      -0.71420000
