24
Properties=species:S:1:pos:R:3 gdb_10358=T pbc="F F F"
C       -0.24360000       1.65660000      -0.30710000
C        0.04260000       0.17560000      -0.02960000
C        0.81510000      -0.54320000      -1.15510000
C        2.29290000      -0.14000000      -1.14730000
O        2.90090000      -0.63600000      -2.33400000
C        0.65250000      -2.08800000      -1.14760000
C        0.95530000      -2.73460000       0.21330000
C       -0.73340000      -2.51540000      -1.65140000
H        0.67400000       2.24050000      -0.42980000
H       -0.83440000       1.77650000      -1.22200000
H       -0.80900000       2.10730000       0.51480000
H        0.59390000       0.08050000       0.91520000
H       -0.91320000      -0.33480000       0.13200000
H        0.41480000      -0.19110000      -2.11660000
H        2.38170000       0.95550000      -1.09780000
H        2.78840000      -0.54520000      -0.25010000
H        3.84060000      -0.43720000      -2.29680000
H        1.39020000      -2.46410000      -1.86550000
H        0.21800000      -2.44820000       0.97130000
H        0.92960000      -3.82630000       0.13060000
H        1.94530000      -2.46080000       0.59170000
H       -0.93590000      -2.10980000      -2.64830000
H       -0.80430000      -3.60650000      -1.71440000
H       -1.53550000      -2.17800000      -0.98460000
