25
Properties=species:S:1:pos:R:3 gdb_93682=T pbc="F F F"
C       -0.14860000       1.56420000       0.03010000
C       -0.01460000       0.03430000       0.01520000
C        0.64420000      -0.47040000      -1.27820000
C        1.01320000      -1.95420000      -1.17630000
C        2.02090000      -2.24560000      -0.03930000
C        1.98160000      -3.74740000       0.30870000
C        3.45880000      -1.88010000      -0.47100000
C        1.64670000      -1.44460000       1.19090000
C        0.74670000      -0.46290000       1.22140000
H        0.83640000       2.04330000      -0.00070000
H       -0.72180000       1.91580000      -0.83430000
H       -0.65950000       1.91000000       0.93510000
H       -1.03440000      -0.38160000       0.06410000
H       -0.02680000      -0.30430000      -2.12900000
H        1.54440000       0.12670000      -1.47400000
H        0.09770000      -2.53170000      -0.99180000
H        1.42040000      -2.31550000      -2.12840000
H        2.22490000      -4.35550000      -0.57000000
H        2.70670000      -3.99000000       1.09360000
H        0.98950000      -4.04490000       0.66340000
H        3.53280000      -0.83430000      -0.78230000
H        4.16410000      -2.02800000       0.35400000
H        3.78400000      -2.51120000      -1.30630000
H        2.16500000      -1.72200000       2.10840000
H        0.53380000       0.03550000       2.16610000
