18
Properties=species:S:1:pos:R:3 gdb_48631=T pbc="F F F"
O       -0.07420000      -0.04590000       0.04730000
C        0.00570000       1.14970000      -0.08130000
C        1.29060000       1.93600000      -0.02320000
C        1.51060000       2.86360000       1.21700000
C        2.22080000       3.76160000       0.17450000
C        3.64640000       3.24480000      -0.03640000
O        3.71430000       1.83730000       0.16060000
C        2.56130000       1.11410000      -0.25620000
N        1.30090000       3.17990000      -0.84740000
H       -0.88980000       1.79050000      -0.24440000
H        0.57530000       3.30130000       1.56670000
H        2.09630000       2.45780000       2.04060000
H        2.18320000       4.84990000       0.27730000
H        3.98760000       3.52110000      -1.04940000
H        4.34490000       3.68400000       0.68470000
H        2.54360000       0.18740000       0.32290000
H        2.62620000       0.84610000      -1.32430000
H        1.72690000       3.05560000      -1.76660000
