14
Properties=species:S:1:pos:R:3 gdb_2011=T pbc="F F F"
O       -0.04730000      -0.01840000       0.03970000
C        0.00490000       1.18610000       0.00740000
C        1.28050000       1.96580000       0.00150000
C        2.73460000       1.45810000       0.03180000
N        2.93260000       2.99000000      -0.00690000
C        1.80680000       2.97490000      -1.05640000
C        1.78300000       3.03030000       1.01570000
H       -0.92340000       1.80400000      -0.02080000
H        3.09600000       0.99450000       0.95220000
H        3.11680000       0.94620000      -0.85380000
H        2.11380000       2.57350000      -2.02530000
H        1.29240000       3.93350000      -1.16050000
H        1.26690000       3.99280000       1.05660000
H        2.06740000       2.68140000       2.01150000
