16
Properties=species:S:1:pos:R:3 gdb_22603=T pbc="F F F"
C       -0.07020000       1.49370000       0.08960000
C        0.16510000       0.02590000      -0.03330000
O       -0.75480000      -0.88390000       0.58840000
C        0.65630000      -0.99580000       0.92640000
C        1.26920000      -1.78010000      -0.18240000
N        2.03950000      -2.78390000      -0.14540000
O        2.44810000      -3.16630000      -1.42900000
C        0.73250000      -0.77930000      -1.23970000
O       -0.19060000      -1.20450000      -2.19560000
H        0.84050000       2.05190000      -0.14830000
H       -0.85310000       1.81320000      -0.60660000
H       -0.38740000       1.74880000       1.10400000
H        0.92640000      -0.91940000       1.97140000
H        3.02170000      -3.91860000      -1.24580000
H        1.54970000      -0.27650000      -1.76560000
H       -0.92250000      -1.60020000      -1.70440000
