17
Properties=species:S:1:pos:R:3 gdb_67075=T pbc="F F F"
C       -0.04000000       1.57910000      -0.11360000
C        0.00870000       0.09140000      -0.02840000
C        0.56750000      -1.01910000      -0.91690000
C        1.37340000      -1.62210000       0.22800000
C        0.33020000      -0.93370000       1.15930000
O       -0.90400000      -1.66660000       0.87080000
C       -0.88850000      -1.03280000      -0.40650000
C        0.57170000      -0.64150000       2.53850000
C        0.80110000      -0.36590000       3.68630000
H        0.94460000       2.02560000       0.06440000
H       -0.37080000       1.89310000      -1.10950000
H       -0.73780000       1.99670000       0.62020000
H        0.81890000      -0.96670000      -1.96860000
H        1.44280000      -2.70940000       0.32590000
H        2.35750000      -1.15810000       0.32210000
H       -1.77080000      -1.08820000      -1.03030000
H        0.99680000      -0.13200000       4.70360000
