20
Properties=species:S:1:pos:R:3 gdb_62879=T pbc="F F F"
C       -0.11220000       1.60570000       0.37760000
C       -0.09930000       0.09290000       0.20350000
O       -1.40040000      -0.35460000      -0.10990000
C        1.04730000      -0.54640000      -0.62880000
N        1.97160000      -0.07440000       0.48410000
C        0.79720000      -0.74400000       1.18980000
C        0.86890000      -1.91220000       0.15390000
C       -0.23740000      -2.92370000      -0.10820000
O        2.08550000      -2.63510000       0.32970000
H        0.88070000       1.99330000       0.59330000
H       -0.49990000       2.07670000      -0.53180000
H       -0.78080000       1.87950000       1.20530000
H       -2.02150000       0.17910000       0.39480000
H        1.28400000      -0.38400000      -1.68360000
H        2.75490000      -0.72710000       0.52060000
H        0.74500000      -0.81130000       2.27920000
H       -0.01910000      -3.47290000      -1.03450000
H       -0.25440000      -3.65320000       0.70830000
H       -1.21550000      -2.46500000      -0.20850000
H        2.15090000      -3.27480000      -0.38630000
