19
Properties=species:S:1:pos:R:3 gdb_38726=T pbc="F F F"
C       -0.02670000       1.50970000       0.13460000
C        1.32850000       0.83790000       0.00400000
O        2.14300000       0.31650000       1.03360000
C        1.63580000      -1.02200000       1.21320000
C        0.13390000      -0.78500000       1.24340000
C        0.07290000       0.01440000      -0.06970000
C        0.01690000      -0.95080000      -1.23090000
C        1.38010000      -1.71190000      -1.14920000
O        1.93790000      -1.91750000       0.16580000
H       -0.40170000       1.84270000       1.09710000
H       -0.28870000       2.16010000      -0.69620000
H        1.88030000       1.06670000      -0.90330000
H        2.12030000      -1.43030000       2.10170000
H       -0.44990000      -1.70690000       1.21020000
H       -0.15470000      -0.20160000       2.12000000
H       -0.83670000      -1.63320000      -1.15360000
H       -0.04320000      -0.45760000      -2.20680000
H        1.30360000      -2.71230000      -1.58580000
H        2.11550000      -1.14870000      -1.73700000
