17
Properties=species:S:1:pos:R:3 gdb_36471=T pbc="F F F"
C        0.09750000      -1.22120000      -0.13170000
C        0.04080000      -0.02110000      -0.13710000
C       -0.00800000       1.43480000      -0.12530000
C        1.35720000       2.05630000       0.17480000
O        2.30840000       1.86270000      -0.88910000
C        2.42900000       3.27480000      -1.13110000
C        1.48080000       3.61230000       0.05310000
C        0.29510000       4.39230000      -0.22850000
C       -0.68820000       5.04010000      -0.47380000
H        0.14340000      -2.28190000      -0.13730000
H       -0.37040000       1.81460000      -1.08710000
H       -0.71970000       1.78330000       0.63460000
H        1.74270000       1.66010000       1.12160000
H        3.46010000       3.62830000      -1.02000000
H        2.04760000       3.56320000      -2.11680000
H        2.01600000       4.03900000       0.90520000
H       -1.55530000       5.61530000      -0.68660000
