15
Properties=species:S:1:pos:R:3 gdb_83732=T pbc="F F F"
O        0.10140000       1.39290000       0.27310000
C       -0.01580000       0.02010000       0.05580000
C       -1.43380000      -0.51340000      -0.05780000
O       -2.29150000       0.25120000      -0.92930000
C       -2.46340000      -0.87760000      -1.81950000
C       -1.33550000      -1.63980000      -1.11530000
O       -0.07680000      -1.46770000      -1.78890000
C        0.60510000      -0.41410000      -1.27430000
O        1.55530000       0.08910000      -1.79990000
H        0.83090000       1.69540000      -0.28590000
H        0.49670000      -0.56220000       0.84500000
H       -1.91500000      -0.74630000       0.89590000
H       -3.45230000      -1.33950000      -1.70720000
H       -2.28230000      -0.62100000      -2.86720000
H       -1.45910000      -2.69040000      -0.85810000
