17
Properties=species:S:1:pos:R:3 gdb_95117=T pbc="F F F"
O       -0.11230000       1.48880000       0.14520000
C       -0.04100000       0.08280000       0.01120000
C        0.67870000      -0.63600000       1.17750000
C       -0.10060000      -1.95290000       1.35480000
N       -1.48410000      -1.73930000       0.86880000
C       -2.12110000      -0.53210000       1.38770000
C       -1.45320000      -0.50510000       0.05050000
C       -2.22570000      -0.47440000      -1.16570000
N       -2.82880000      -0.42530000      -2.15070000
H        0.72400000       1.86620000      -0.14340000
H        0.41460000      -0.19070000      -0.95040000
H        1.73790000      -0.80550000       0.97030000
H        0.61690000       0.00310000       2.06260000
H        0.32910000      -2.75220000       0.74320000
H       -0.12760000      -2.30540000       2.38990000
H       -3.20410000      -0.57620000       1.43010000
H       -1.64860000       0.03020000       2.18800000
