21
Properties=species:S:1:pos:R:3 gdb_58892=T pbc="F F F"
C       -0.09080000       1.56870000       0.27200000
C        0.04510000       0.05300000       0.05530000
C        0.88220000      -0.59330000       1.16570000
C       -1.31880000      -0.58280000      -0.10440000
C       -2.24520000      -0.99540000       1.03070000
C       -1.72080000      -2.01500000       0.03180000
O       -2.52180000      -2.33970000      -1.07720000
C       -2.91950000      -1.10710000      -1.64820000
O       -1.96640000      -0.12950000      -1.28310000
H        0.89370000       2.04680000       0.29830000
H       -0.67510000       2.02620000      -0.53000000
H       -0.59400000       1.78100000       1.22220000
H        0.56100000      -0.10900000      -0.90060000
H        0.43430000      -0.43370000       2.15260000
H        1.00340000      -1.67060000       1.01480000
H        1.88100000      -0.14730000       1.18710000
H       -1.82220000      -1.04180000       2.02840000
H       -3.28900000      -0.70340000       1.00110000
H       -1.07580000      -2.83210000       0.32810000
H       -2.94470000      -1.20330000      -2.73870000
H       -3.91890000      -0.82310000      -1.27870000
