13
Properties=species:S:1:pos:R:3 gdb_131749=T pbc="F F F"
O       -0.01000000       1.34610000      -0.41890000
C       -0.02600000       0.09310000       0.22880000
C       -1.39380000      -0.52330000       0.19160000
N       -1.98490000      -1.06830000       1.22170000
O       -3.20820000      -1.50390000       0.70830000
C       -3.21800000      -1.15670000      -0.59150000
N       -2.12700000      -0.55210000      -0.97120000
C       -4.35830000      -1.47540000      -1.35900000
C       -5.33430000      -1.75090000      -2.00340000
H       -0.42110000       1.22520000      -1.28320000
H        0.68770000      -0.61250000      -0.22640000
H        0.27550000       0.24910000       1.26700000
H       -6.19550000      -1.99220000      -2.57780000
