21
Properties=species:S:1:pos:R:3 gdb_95228=T pbc="F F F"
C        0.14220000       1.64880000      -0.04130000
C       -0.03320000       0.12930000       0.06510000
C        0.39880000      -0.53690000      -1.26470000
O        0.62790000      -1.93470000      -1.19780000
C       -0.35820000      -2.68130000      -0.55700000
C        0.15990000      -3.85710000       0.21190000
C       -0.39730000      -2.65420000       0.95690000
C        0.51210000      -1.71230000       1.66640000
C        0.69100000      -0.45530000       1.25870000
H        1.20070000       1.91470000      -0.14420000
H       -0.38970000       2.05210000      -0.90940000
H       -0.24400000       2.15170000       0.85050000
H       -1.10330000      -0.07620000       0.19500000
H       -0.35600000      -0.30570000      -2.03410000
H        1.35260000      -0.11530000      -1.60010000
H       -1.29740000      -2.77560000      -1.10420000
H       -0.41360000      -4.77720000       0.21250000
H        1.23680000      -3.98220000       0.20530000
H       -1.37050000      -2.81110000       1.42110000
H        1.03660000      -2.08220000       2.54530000
H        1.37960000       0.19480000       1.79480000
