20
Properties=species:S:1:pos:R:3 gdb_89240=T pbc="F F F"
C        0.04480000       1.48350000      -0.13430000
N       -0.04160000       0.04510000       0.04910000
C       -1.41210000      -0.47740000       0.27910000
C       -1.20170000      -1.35700000       1.50920000
C       -2.33400000      -2.18620000       2.05840000
C       -0.23200000      -0.58970000       2.47430000
O        0.43730000      -1.83780000       2.85840000
C        0.24920000      -1.95130000       1.40890000
C        0.66970000      -0.48030000       1.19070000
H        1.09220000       1.77610000      -0.25870000
H       -0.49150000       1.77130000      -1.04410000
H       -0.37600000       2.06770000       0.70560000
H       -2.12890000       0.33160000       0.48250000
H       -1.78090000      -1.03950000      -0.58790000
H       -2.71170000      -2.88930000       1.30780000
H       -1.98600000      -2.75610000       2.92410000
H       -3.17320000      -1.55550000       2.37260000
H       -0.46260000       0.12520000       3.26550000
H        0.59520000      -2.85760000       0.91070000
H        1.71590000      -0.19310000       1.28360000
