14
Properties=species:S:1:pos:R:3 gdb_42677=T pbc="F F F"
O       -0.03230000      -0.06400000      -0.03590000
C       -0.02270000       1.12420000      -0.00600000
C       -0.97150000       2.31580000       0.02790000
N        0.02190000       3.07040000       0.96770000
C        0.00060000       4.25940000       0.00990000
C       -0.03900000       3.09870000      -0.98560000
C       -0.08390000       3.09140000      -2.41930000
C       -0.12150000       3.09610000      -3.62140000
C        0.94360000       2.30180000      -0.03200000
H       -2.04830000       2.42110000       0.14300000
H       -0.89260000       4.88300000       0.10340000
H        0.90690000       4.86990000       0.04710000
H       -0.15470000       3.09670000      -4.68310000
H        2.02690000       2.39140000       0.01550000
