20
Properties=species:S:1:pos:R:3 gdb_56905=T pbc="F F F"
C       -0.02610000       1.48010000      -0.18030000
C        0.04700000      -0.02820000       0.13380000
C        0.75440000      -0.25560000       1.40230000
N        1.30850000      -0.42800000       2.40190000
C       -1.33750000      -0.66250000       0.16590000
C       -1.99090000      -1.15130000      -1.11540000
C       -1.59110000      -2.12840000      -0.03020000
C       -0.47890000      -3.12840000      -0.25460000
O       -2.62020000      -2.60310000       0.79990000
H        0.97270000       1.92020000      -0.23160000
H       -0.52710000       1.62750000      -1.14050000
H       -0.59410000       2.00780000       0.59070000
H        0.64380000      -0.51150000      -0.64890000
H       -2.01120000      -0.20270000       0.88320000
H       -3.04770000      -0.94920000      -1.24680000
H       -1.40280000      -1.12790000      -2.02850000
H        0.31040000      -2.73350000      -0.89940000
H       -0.03350000      -3.42600000       0.69920000
H       -0.87340000      -4.02830000      -0.74230000
H       -3.04610000      -3.34120000       0.34920000
