18
Properties=species:S:1:pos:R:3 gdb_110153=T pbc="F F F"
C        0.02500000       1.54090000       0.02220000
C        0.20420000       0.01990000      -0.02060000
C        0.68540000      -0.47080000      -1.38410000
C        0.73350000      -2.00850000      -1.63760000
O       -0.21400000      -1.84390000      -2.75440000
C       -0.31760000      -0.48720000      -2.52110000
N       -1.03620000       0.37800000      -3.07490000
C        1.99110000      -2.60050000      -2.03730000
C        3.04690000      -3.08100000      -2.35050000
H        0.97600000       2.05380000      -0.15850000
H       -0.68290000       1.86790000      -0.74380000
H       -0.34710000       1.86040000       1.00000000
H        0.92820000      -0.29800000       0.74010000
H       -0.74460000      -0.47360000       0.22390000
H        1.62040000       0.01950000      -1.66880000
H        0.25460000      -2.59420000      -0.84640000
H       -1.61610000      -0.03010000      -3.81020000
H        3.97670000      -3.51100000      -2.63190000
