12
Properties=species:S:1:pos:R:3 gdb_654=T pbc="F F F"
O        0.00890000       1.47410000      -0.10640000
C        0.02560000       0.07960000      -0.00870000
C       -0.09260000      -0.64460000       1.37350000
C       -1.53260000      -0.10170000       1.52160000
C       -1.34280000      -0.63240000       0.07990000
O       -0.62350000      -1.80530000       0.62780000
H        0.91590000       1.79300000      -0.07030000
H        0.72900000      -0.40600000      -0.69370000
H        0.66360000      -0.84050000       2.13470000
H       -2.18960000      -0.70270000       2.15120000
H       -1.65970000       0.97350000       1.65170000
H       -2.08070000      -0.81250000      -0.70200000
