14
Properties=species:S:1:pos:R:3 gdb_12726=T pbc="F F F"
O        0.34530000       1.47000000      -0.13470000
C        0.08590000       0.11550000      -0.11380000
C        0.42710000      -0.63340000      -1.43200000
C       -0.94880000      -1.36910000      -1.39250000
C       -1.28500000      -0.66260000      -0.07000000
O       -0.78440000      -1.42600000       1.07760000
C        0.38330000      -0.70280000       1.14790000
O        1.22530000      -0.74960000       1.98660000
H        0.33940000       1.81090000       0.76700000
H        0.49860000       0.08830000      -2.24800000
H        1.33220000      -1.24270000      -1.41740000
H       -1.60970000      -1.08500000      -2.21380000
H       -0.92130000      -2.45710000      -1.31590000
H       -2.26670000      -0.24010000       0.13520000
