15
Properties=species:S:1:pos:R:3 gdb_44995=T pbc="F F F"
O        0.00720000       0.09030000      -0.43790000
C        0.00590000       1.21700000      -0.02770000
C       -1.23090000       2.10440000       0.19060000
N       -0.81960000       3.30380000       0.92420000
C       -0.21370000       3.02270000       2.22190000
C        0.67710000       3.26660000       1.04630000
C        1.24700000       2.04220000       0.35370000
C        1.37250000       4.52180000       0.90640000
N        1.96510000       5.50850000       0.79900000
H       -1.63270000       2.39690000      -0.78670000
H       -2.01490000       1.55700000       0.72150000
H       -0.34180000       3.80240000       2.96550000
H       -0.24300000       2.00470000       2.61010000
H        1.92480000       1.45280000       0.97550000
H        1.78680000       2.31160000      -0.56040000
