18
Properties=species:S:1:pos:R:3 gdb_105594=T pbc="F F F"
C       -0.42490000       1.65020000      -0.07150000
C       -0.04450000       0.16850000       0.05820000
C        0.75240000      -0.39790000      -1.13260000
C        0.82060000      -1.94740000      -1.25240000
N        0.04660000      -1.82540000      -2.49480000
C       -0.08790000      -0.46850000      -2.46650000
O       -0.64570000       0.33080000      -3.16920000
C        2.07850000       0.29320000      -1.35660000
O        3.13630000      -0.27460000      -1.47390000
H        0.44560000       2.30870000      -0.00100000
H       -0.91890000       1.84190000      -1.02750000
H       -1.10990000       1.93150000       0.73360000
H        0.52740000       0.00110000       0.97950000
H       -0.95960000      -0.42830000       0.15240000
H        1.82940000      -2.34070000      -1.38730000
H        0.29760000      -2.48530000      -0.45610000
H       -0.31730000      -2.51220000      -3.13840000
H        2.01540000       1.39800000      -1.42930000
