14
Properties=species:S:1:pos:R:3 gdb_3311=T pbc="F F F"
O       -0.03760000      -0.04590000      -0.12690000
C        0.01400000       1.12380000       0.16590000
C        1.25910000       1.96590000       0.06110000
C        1.21230000       3.22600000      -0.89670000
C        1.51720000       4.11410000       0.31330000
N        0.40450000       3.89300000       1.26450000
C        1.54160000       2.93950000       1.22400000
H       -0.87730000       1.66990000       0.53930000
H        2.10910000       1.32170000      -0.16930000
H        2.01450000       3.18690000      -1.63500000
H        0.26120000       3.43030000      -1.39430000
H        2.09230000       5.03090000       0.33800000
H        0.55960000       4.50500000       2.06500000
H        2.13250000       2.74110000       2.10930000
