20
Properties=species:S:1:pos:R:3 gdb_112411=T pbc="F F F"
C       -0.76960000       1.31360000      -0.04280000
C        0.04690000       0.02260000      -0.07890000
C        1.27490000       0.04950000      -1.00660000
C        2.25950000      -0.94570000      -0.38350000
O        3.28060000      -1.37480000      -0.87290000
N        1.76800000      -1.25380000       0.86010000
C        0.62950000      -0.45570000       1.28390000
C        1.05980000       0.64830000       2.25250000
O        1.65970000      -0.00990000       3.35990000
H       -0.16280000       2.17200000       0.26430000
H       -1.17060000       1.53640000      -1.03650000
H       -1.61850000       1.23580000       0.64500000
H       -0.60790000      -0.78580000      -0.42400000
H        1.05600000      -0.21750000      -2.04230000
H        1.75690000       1.03510000      -1.02280000
H        2.35740000      -1.71290000       1.53780000
H       -0.09370000      -1.08570000       1.81580000
H        1.77170000       1.32740000       1.75800000
H        0.18550000       1.23820000       2.56490000
H        2.02890000       0.65430000       3.94860000
