18
Properties=species:S:1:pos:R:3 gdb_100582=T pbc="F F F"
C       -0.05470000       1.59210000       0.16780000
C       -0.02910000       0.05170000       0.10470000
C        0.87470000      -0.53970000       1.18750000
O        2.19300000      -0.07770000       0.93080000
C       -1.44100000      -0.51180000       0.25210000
O       -1.87150000      -0.97540000       1.27740000
N       -2.20040000      -0.41360000      -0.92780000
C       -3.53320000      -0.76710000      -1.12550000
O       -4.28340000      -1.22240000      -0.30900000
H        0.96720000       1.97210000       0.11860000
H       -0.62910000       2.02580000      -0.65630000
H       -0.50580000       1.92790000       1.10700000
H        0.37820000      -0.25090000      -0.86950000
H        0.51260000      -0.22290000       2.17460000
H        0.81930000      -1.63720000       1.15620000
H        2.75820000      -0.37020000       1.65120000
H       -1.72950000      -0.03410000      -1.73630000
H       -3.82480000      -0.56530000      -2.17740000
