14
Properties=species:S:1:pos:R:3 gdb_25840=T pbc="F F F"
C        0.05670000       1.36570000       0.35310000
C        0.10170000      -0.14340000       0.30170000
O        1.12320000      -0.78190000       0.34300000
C       -1.24130000      -0.86650000       0.19140000
N       -2.34500000      -0.11400000       0.14910000
C       -3.48410000      -0.80080000       0.05290000
N       -3.59070000      -2.12680000      -0.00140000
C       -2.41920000      -2.76790000       0.04910000
N       -1.22000000      -2.20090000       0.14470000
H        1.07440000       1.74810000       0.43070000
H       -0.43380000       1.76460000      -0.54020000
H       -0.54340000       1.70200000       1.20430000
H       -4.40660000      -0.22580000       0.01560000
H       -2.45050000      -3.85440000       0.00800000
