11
Properties=species:S:1:pos:R:3 gdb_131020=T pbc="F F F"
O       -0.07560000      -0.02390000      -0.00200000
C       -0.00360000       1.16330000       0.00780000
N        1.23460000       1.87480000      -0.00020000
N        2.44190000       1.29060000      -0.01920000
C        3.27690000       2.31060000      -0.01990000
C        2.52350000       3.51730000      -0.00060000
N        1.23050000       3.20970000       0.01140000
C        2.99760000       4.85650000       0.00560000
N        3.42780000       5.92990000       0.01000000
H       -0.83550000       1.88350000       0.02340000
H        4.34630000       2.17230000      -0.03340000
