16
Properties=species:S:1:pos:R:3 gdb_42509=T pbc="F F F"
O        0.10840000       0.05750000       0.20620000
C        0.01560000       1.24680000       0.13620000
C       -1.17800000       2.25680000       0.00500000
C       -0.10730000       3.36080000      -0.34110000
C        1.00700000       2.37260000       0.02640000
C        2.20910000       2.51130000       0.89950000
N        2.34980000       2.28590000      -0.53640000
C       -2.21150000       1.95860000      -0.95780000
C       -3.05010000       1.69890000      -1.77900000
H       -1.60740000       2.42110000       1.00080000
H       -0.10790000       3.61750000      -1.40140000
H       -0.16920000       4.26960000       0.25840000
H        2.49040000       3.50470000       1.23860000
H        2.42480000       1.69980000       1.59010000
H        2.56770000       1.30800000      -0.72450000
H       -3.79580000       1.46710000      -2.49860000
