20
Properties=species:S:1:pos:R:3 gdb_116393=T pbc="F F F"
C       -0.01810000       1.56170000       0.01520000
C       -0.01100000       0.03300000      -0.03730000
C       -1.41560000      -0.56540000      -0.02720000
O       -2.08710000      -0.14500000      -1.20990000
C       -3.32970000      -0.79080000      -1.38080000
C       -3.10510000      -2.27230000      -1.65570000
N       -2.24000000      -2.81280000      -0.61910000
C       -1.36680000      -2.09300000       0.14290000
O       -0.62110000      -2.61740000       0.95040000
H        1.00180000       1.95630000      -0.01680000
H       -0.57280000       1.98040000      -0.82860000
H       -0.48640000       1.92280000       0.93800000
H        0.49970000      -0.31230000      -0.94410000
H        0.52690000      -0.39170000       0.81380000
H       -1.96400000      -0.18560000       0.85480000
H       -3.96290000      -0.66290000      -0.48740000
H       -3.82890000      -0.31540000      -2.22930000
H       -4.06230000      -2.80710000      -1.65220000
H       -2.65420000      -2.39620000      -2.65040000
H       -2.15570000      -3.81390000      -0.51550000
