21
Properties=species:S:1:pos:R:3 gdb_102402=T pbc="F F F"
C        0.16860000       1.45540000       0.00200000
C       -0.00360000      -0.06330000       0.09850000
C       -1.46720000      -0.53810000       0.00570000
C       -2.34900000       0.09420000       1.12330000
O       -1.78610000      -0.04100000       2.40370000
O       -2.13370000      -0.18830000      -1.19990000
C       -1.48020000      -0.51330000      -2.41250000
C       -1.56000000      -2.04640000       0.22020000
O       -1.17060000      -2.60370000       1.22090000
H        1.22940000       1.71240000      -0.07070000
H       -0.33960000       1.86420000      -0.87650000
H       -0.23160000       1.95510000       0.88790000
H        0.58210000      -0.55980000      -0.68370000
H        0.38880000      -0.42700000       1.05110000
H       -2.44420000       1.16190000       0.91100000
H       -3.35790000      -0.34230000       1.05780000
H       -1.58400000      -0.97830000       2.53300000
H       -0.60780000       0.12570000      -2.60030000
H       -1.15280000      -1.56230000      -2.44820000
H       -2.20970000      -0.35240000      -3.20970000
H       -2.09200000      -2.60610000      -0.58010000
