17
Properties=species:S:1:pos:R:3 gdb_52778=T pbc="F F F"
C        0.00230000       1.50550000       0.00350000
C        0.01630000       0.05150000       0.05520000
C        0.02500000      -1.15300000       0.10040000
C        0.05120000      -2.59040000       0.10910000
O        1.17970000      -3.20080000      -0.46770000
C       -0.43040000      -3.43610000       1.27870000
C       -1.68750000      -2.81630000       1.87200000
O       -2.33640000      -2.79330000       0.56540000
C       -1.20910000      -3.43310000      -0.01440000
H        0.59600000       1.87470000      -0.84010000
H       -1.01780000       1.88580000      -0.11940000
H        0.41600000       1.94560000       0.91760000
H        1.22670000      -2.90800000      -1.38490000
H        0.22000000      -4.17670000       1.72290000
H       -2.22550000      -3.48570000       2.55150000
H       -1.60140000      -1.81610000       2.30860000
H       -1.35630000      -4.16670000      -0.79930000
