17
Properties=species:S:1:pos:R:3 gdb_60760=T pbc="F F F"
C        0.55620000       1.66570000      -0.59930000
C        0.02600000       0.46640000       0.18330000
C       -0.10350000      -0.77510000      -0.68590000
O       -0.51070000      -1.84620000      -0.29860000
C        0.86440000       0.22400000       1.47390000
O        1.71980000       1.00040000       1.81400000
N        0.48310000      -0.91410000       2.16020000
C        0.97780000      -1.40310000       3.36810000
N        1.80020000      -0.78850000       4.10980000
H        1.57490000       1.48170000      -0.95180000
H       -0.08090000       1.87160000      -1.46480000
H        0.58750000       2.55190000       0.03470000
H       -0.99480000       0.66850000       0.54090000
H        0.20060000      -0.64020000      -1.74550000
H       -0.15650000      -1.51980000       1.65810000
H        0.54030000      -2.38670000       3.58120000
H        1.99920000      -1.35120000       4.93590000
