19
Properties=species:S:1:pos:R:3 gdb_91219=T pbc="F F F"
C       -0.31500000       1.41190000       0.01140000
N        0.12510000       0.03030000       0.00440000
C        1.22270000      -0.40110000      -0.88390000
C        1.87230000      -1.16740000       0.29610000
N        2.83120000      -0.37600000       1.06570000
C        1.87600000       0.28980000       1.81910000
O        1.94280000       1.22540000       2.57140000
C        0.73720000      -0.58250000       1.20690000
C       -0.19030000      -1.32310000       2.13530000
H        0.49320000       2.13870000       0.19790000
H       -0.77640000       1.64800000      -0.95340000
H       -1.07440000       1.54890000       0.78740000
H        0.87400000      -1.01510000      -1.72200000
H        1.85950000       0.40570000      -1.27500000
H        2.10140000      -2.22740000       0.19610000
H        3.73490000      -0.02720000       0.77020000
H       -0.81190000      -0.61140000       2.68960000
H       -0.84960000      -1.98970000       1.57280000
H        0.37440000      -1.90750000       2.86870000
