17
Properties=species:S:1:pos:R:3 gdb_25494=T pbc="F F F"
O        0.15530000      -0.20990000      -0.26030000
C        0.07730000       0.98850000      -0.19520000
C        1.26550000       1.92780000      -0.04350000
C        1.29770000       2.93700000      -1.17220000
C        1.77240000       2.56060000      -2.43360000
C        1.77780000       3.46700000      -3.48910000
C        1.30280000       4.76370000      -3.30070000
C        0.82370000       5.14670000      -2.05100000
C        0.82140000       4.23810000      -0.99510000
H       -0.90500000       1.51010000      -0.25840000
H        1.15640000       2.44670000       0.91740000
H        2.17420000       1.32100000      -0.00800000
H        2.14070000       1.55030000      -2.58480000
H        2.15400000       3.16090000      -4.45960000
H        1.30830000       5.47110000      -4.12310000
H        0.45510000       6.15510000      -1.89430000
H        0.45340000       4.54550000      -0.02050000
