17
Properties=species:S:1:pos:R:3 gdb_70954=T pbc="F F F"
C        0.41950000       1.67080000      -0.14060000
C        0.56240000       0.19200000       0.07080000
C       -0.42060000      -0.67550000      -0.68070000
C       -0.52900000      -2.09100000      -0.12530000
C        0.79260000      -2.70960000       0.28060000
C        1.65880000      -1.77150000       1.12990000
O        2.44360000      -2.21060000       1.94370000
C        1.49520000      -0.32940000       0.88570000
O       -1.58760000      -2.65790000      -0.01560000
H        1.18150000       2.23490000       0.40100000
H        0.49280000       1.91860000      -1.20710000
H       -0.56920000       2.01360000       0.18890000
H       -1.41930000      -0.22770000      -0.69120000
H       -0.10540000      -0.74590000      -1.73380000
H        0.64240000      -3.65840000       0.79690000
H        1.36250000      -2.90570000      -0.64020000
H        2.18130000       0.31170000       1.43110000
