21
Properties=species:S:1:pos:R:3 gdb_40585=T pbc="F F F"
C       -0.25150000       1.41660000      -0.23290000
C        1.20380000       1.28790000       0.14080000
C        0.34040000       0.05340000       0.03530000
C       -0.04510000      -0.70370000       1.27610000
C       -1.10200000      -1.83090000       1.19240000
C       -0.07220000      -2.87740000       0.63220000
C       -0.43970000      -3.92200000       1.70370000
C       -0.50950000      -2.57120000       2.44100000
C        0.72080000      -1.99220000       1.66030000
H       -0.93090000       1.82560000       0.50830000
H       -0.50040000       1.68080000      -1.25480000
H        1.95080000       1.46410000      -0.62540000
H        1.50270000       1.61040000       1.13320000
H        0.51070000      -0.56650000      -0.84130000
H       -0.19840000      -0.00800000       2.11300000
H       -2.15920000      -1.76790000       0.92640000
H        0.18260000      -3.03860000      -0.41600000
H       -1.38420000      -4.45890000       1.56600000
H        0.35240000      -4.61260000       2.01180000
H       -0.75830000      -2.36090000       3.48280000
H        1.77040000      -2.11570000       1.93520000
