21
Properties=species:S:1:pos:R:3 gdb_7271=T pbc="F F F"
C        0.05470000       1.54080000      -0.02280000
C        0.00990000       0.00490000       0.03380000
C        0.78600000      -0.47780000       1.27090000
C       -1.44560000      -0.52880000      -0.00570000
C       -2.24120000      -0.00280000      -1.20960000
C       -1.46260000      -2.08090000      -0.00160000
C       -2.81160000      -2.64020000       0.05180000
N       -3.88320000      -3.07070000       0.10240000
H        1.08750000       1.89370000       0.05740000
H       -0.35580000       1.93680000      -0.95420000
H       -0.50940000       1.98040000       0.80880000
H        0.52330000      -0.37840000      -0.86130000
H        0.27190000      -0.18590000       2.19450000
H        0.92640000      -1.56190000       1.29310000
H        1.78300000      -0.02720000       1.29400000
H       -1.94890000      -0.19680000       0.91290000
H       -2.38370000       1.07820000      -1.15770000
H       -1.72450000      -0.23020000      -2.15010000
H       -3.23240000      -0.46260000      -1.25310000
H       -0.96610000      -2.46000000      -0.90400000
H       -0.90920000      -2.47730000       0.85390000
