17
Properties=species:S:1:pos:R:3 gdb_34387=T pbc="F F F"
N       -0.06140000      -1.16640000      -0.06630000
C       -0.05310000      -0.01100000      -0.01110000
C       -0.04410000       1.44080000       0.04800000
C       -0.29480000       2.17990000      -1.30750000
N        0.84400000       3.07760000      -1.00980000
C        1.33560000       2.20050000       0.08060000
C        1.43500000       2.90260000       1.44440000
C        0.03040000       2.78780000       1.98850000
C       -0.75980000       2.00520000       1.25560000
H       -0.14960000       1.51380000      -2.16640000
H       -1.25910000       2.68880000      -1.40390000
H        1.49290000       3.20180000      -1.77780000
H        2.20780000       1.59130000      -0.17330000
H        2.16380000       2.42520000       2.11240000
H        1.74720000       3.94430000       1.31010000
H       -0.28580000       3.29950000       2.89100000
H       -1.79590000       1.76720000       1.46420000
