18
Properties=species:S:1:pos:R:3 gdb_70548=T pbc="F F F"
C        0.03090000       1.50180000      -0.01400000
C        0.00920000      -0.00580000       0.04710000
C       -0.88650000      -0.72860000       1.03810000
C        0.62060000      -0.75640000       1.18730000
C        1.40500000      -1.98630000       0.79790000
O        0.85200000      -2.66680000      -0.33470000
C        0.46870000      -1.96290000      -1.43640000
O        0.33110000      -2.51720000      -2.49670000
N        0.24390000      -0.61970000      -1.24020000
H        0.98940000       1.86440000      -0.39940000
H       -0.76440000       1.88120000      -0.66700000
H       -0.12680000       1.92840000       0.97980000
H       -1.45380000      -0.13520000       1.74670000
H       -1.37970000      -1.63500000       0.70440000
H        1.06380000      -0.18170000       1.99550000
H        2.44420000      -1.70770000       0.57560000
H        1.41810000      -2.73380000       1.59600000
H       -0.21080000      -0.19680000      -2.03680000
