23
Properties=species:S:1:pos:R:3 gdb_101480=T pbc="F F F"
C       -0.18920000       1.59760000      -0.27420000
C       -0.03060000       0.09440000      -0.03240000
C       -1.38030000      -0.63970000      -0.02040000
O       -2.08310000      -0.45240000      -1.24680000
C       -1.27070000      -2.13390000       0.35140000
C       -2.66110000      -2.82270000       0.36160000
C       -2.73580000      -3.53680000      -1.01210000
O       -1.53140000      -3.20430000      -1.71390000
C       -0.54070000      -2.96730000      -0.71510000
H        0.78280000       2.09690000      -0.32960000
H       -0.72510000       1.77440000      -1.21010000
H       -0.76170000       2.06870000       0.53290000
H        0.61270000      -0.33280000      -0.81230000
H        0.47860000      -0.08290000       0.92440000
H       -2.00840000      -0.16210000       0.74630000
H       -1.82730000      -1.17090000      -1.84210000
H       -0.77490000      -2.21430000       1.32370000
H       -2.73660000      -3.54420000       1.17900000
H       -3.46330000      -2.09200000       0.47980000
H       -2.80040000      -4.62730000      -0.89300000
H       -3.57460000      -3.20520000      -1.62830000
H        0.30180000      -2.46670000      -1.19760000
H       -0.18020000      -3.91830000      -0.29150000
