18
Properties=species:S:1:pos:R:3 gdb_81015=T pbc="F F F"
C        0.05790000       1.53180000       0.10410000
C       -0.03010000       0.03770000      -0.04350000
C        0.22450000      -0.70600000      -1.37980000
C       -0.64870000      -1.84960000      -0.78770000
N        0.15010000      -2.63090000       0.16820000
C        0.83010000      -1.89940000       0.95530000
O        0.84360000      -0.55070000       0.96500000
C       -1.39360000      -0.72980000       0.00160000
O       -2.01220000      -1.00360000       1.21820000
H        1.08810000       1.87810000      -0.02400000
H       -0.57010000       2.01950000      -0.64670000
H       -0.28690000       1.83460000       1.09740000
H       -0.26080000      -0.19970000      -2.21670000
H        1.25860000      -0.94970000      -1.62750000
H       -1.20530000      -2.51250000      -1.44870000
H        1.48270000      -2.31570000       1.71930000
H       -2.11660000      -0.21440000      -0.63650000
H       -1.54230000      -1.74040000       1.62800000
