17
Properties=species:S:1:pos:R:3 gdb_54703=T pbc="F F F"
N       -0.04710000       1.32510000      -0.13740000
C        0.13120000      -0.01400000       0.06880000
O        1.21360000      -0.49460000       0.33920000
C       -1.16570000      -0.81430000      -0.03700000
C       -1.93980000      -0.94060000      -1.34640000
C       -1.34770000      -2.17040000      -2.06800000
C       -0.24120000      -2.68850000      -1.16530000
N       -1.10070000      -2.32530000       0.03850000
C       -2.30880000      -2.33300000      -0.93160000
H        0.76320000       1.92270000      -0.12380000
H       -0.92770000       1.71150000      -0.42950000
H       -1.83300000      -0.47990000       0.76670000
H       -2.54880000      -0.21440000      -1.87190000
H       -1.52700000      -2.32760000      -3.12470000
H       -0.15860000      -3.77760000      -1.20370000
H        0.74860000      -2.23250000      -1.17200000
H       -3.24190000      -2.85380000      -0.77390000
