16
Properties=species:S:1:pos:R:3 gdb_6653=T pbc="F F F"
C       -0.12230000       1.40740000       0.16260000
C       -0.28640000      -0.09840000       0.27590000
O        0.29910000      -0.76500000       1.11100000
N       -1.12500000      -0.67310000      -0.63940000
C       -1.31030000      -2.10990000      -0.69020000
C       -2.18920000      -2.62240000       0.47610000
C       -2.42850000      -4.05890000       0.38360000
N       -2.60990000      -5.19560000       0.28120000
H       -0.15210000       1.84030000       1.16430000
H        0.86340000       1.62410000      -0.26070000
H       -0.88200000       1.88450000      -0.46210000
H       -1.60480000      -0.09570000      -1.30830000
H       -1.76800000      -2.36760000      -1.64790000
H       -0.33420000      -2.59890000      -0.63290000
H       -1.68060000      -2.39430000       1.41710000
H       -3.15190000      -2.09990000       0.47970000
