11
Properties=species:S:1:pos:R:3 gdb_130732=T pbc="F F F"
O        0.04510000       0.09410000      -0.59740000
C        0.06600000       1.24200000      -0.22290000
N       -1.12550000       1.98640000      -0.13660000
N       -1.44690000       3.10860000       0.63200000
N       -0.65210000       4.05550000       0.71960000
C        0.54710000       4.05380000      -0.10490000
O        0.67000000       4.85300000      -0.98350000
N        1.53580000       3.15930000       0.31170000
C        1.32200000       1.90880000       0.25010000
H       -1.94550000       1.40210000      -0.25640000
H        2.10500000       1.21260000       0.54910000
