18
Properties=species:S:1:pos:R:3 gdb_70010=T pbc="F F F"
C       -0.12970000       1.56470000       0.09960000
C        0.16300000       0.10370000      -0.02860000
N       -0.75250000      -0.95880000       0.49790000
C        0.65210000      -0.92300000       0.96420000
C        1.59430000      -1.51110000      -0.12300000
O        1.61180000      -2.81930000      -0.64800000
C        1.42230000      -2.67770000      -2.07160000
C        0.75880000      -1.31560000      -2.27370000
C        0.88180000      -0.66030000      -1.12890000
H        0.76640000       2.16390000      -0.09050000
H       -0.89880000       1.87660000      -0.61630000
H       -0.49020000       1.80290000       1.10580000
H       -1.30720000      -0.52370000       1.23840000
H        0.88520000      -0.80110000       2.01550000
H        2.61360000      -1.16000000       0.11310000
H        2.38910000      -2.77580000      -2.59260000
H        0.77350000      -3.49140000      -2.41870000
H        0.19460000      -1.06330000      -3.16220000
