18
Properties=species:S:1:pos:R:3 gdb_37425=T pbc="F F F"
C       -0.06450000       1.55360000       0.00980000
C        1.48230000       1.54050000       0.02880000
C        2.20100000       1.43560000       1.39460000
C        2.04810000      -0.11230000       1.27350000
C        0.95590000      -0.75750000       2.10880000
O       -0.09610000       0.13810000       2.49150000
C       -0.30060000      -0.69210000       1.34070000
C       -0.00480000      -0.00550000       0.01880000
N        1.50090000       0.03240000      -0.13020000
H       -0.55930000       2.01080000       0.86790000
H       -0.48000000       1.96460000      -0.91250000
H        1.98320000       2.13440000      -0.74010000
H        3.23960000       1.77100000       1.36120000
H        1.69760000       1.89330000       2.24740000
H        2.97470000      -0.69110000       1.31440000
H        1.18210000      -1.54240000       2.82600000
H       -1.09950000      -1.42360000       1.43140000
H       -0.50480000      -0.51000000      -0.81240000
