20
Properties=species:S:1:pos:R:3 gdb_97388=T pbc="F F F"
C       -0.01050000       1.34640000      -0.04480000
N        0.02000000      -0.09950000      -0.10860000
C       -1.08060000      -0.70220000      -0.04000000
O       -1.12610000      -2.05330000      -0.09330000
C       -2.38750000      -2.64380000      -0.01050000
C       -3.59120000      -2.50280000      -0.99070000
C       -4.00450000      -3.54500000       0.08950000
C       -2.58360000      -4.17070000      -0.05860000
C       -3.40650000      -2.59460000       1.16810000
H        0.59480000       1.68970000       0.80200000
H        0.44500000       1.76380000      -0.95010000
H       -1.02280000       1.77120000       0.05970000
H       -2.06100000      -0.21580000       0.06440000
H       -4.13190000      -1.55270000      -0.98420000
H       -3.43880000      -2.87920000      -2.00500000
H       -4.94980000      -4.07710000       0.14780000
H       -2.35850000      -4.66050000      -1.00870000
H       -2.20410000      -4.73720000       0.79490000
H       -3.08700000      -3.05410000       2.10640000
H       -3.93360000      -1.65130000       1.33340000
