20
Properties=species:S:1:pos:R:3 gdb_102757=T pbc="F F F"
C       -0.37760000       1.06850000       0.61180000
O       -0.15140000      -0.29540000       0.31910000
C        0.48530000      -0.51570000      -0.92300000
C        1.25000000      -1.84120000      -0.87020000
N        2.41720000      -1.72810000      -0.01030000
C        2.22080000      -2.04750000       1.40110000
C        2.95490000      -2.98380000       0.50840000
C       -0.54770000      -0.54810000      -2.05000000
O       -0.27790000      -0.73250000      -3.20780000
H        0.56750000       1.62830000       0.66890000
H       -1.02150000       1.55500000      -0.13650000
H       -0.87740000       1.11140000       1.58210000
H        1.21380000       0.28100000      -1.14060000
H        0.55590000      -2.63850000      -0.54790000
H        1.58060000      -2.07260000      -1.88770000
H        2.76010000      -1.41840000       2.10330000
H        1.22190000      -2.33370000       1.72040000
H        2.44990000      -3.90800000       0.23170000
H        4.03830000      -3.05180000       0.54240000
H       -1.59670000      -0.41310000      -1.69840000
