20
Properties=species:S:1:pos:R:3 gdb_83397=T pbc="F F F"
C       -0.03490000       1.49680000      -0.17390000
C        0.11950000      -0.00010000      -0.01430000
C        1.39670000      -0.76400000      -0.12390000
C        2.58840000      -0.00470000       0.47320000
C        1.83930000       0.09310000       1.84100000
C        0.65340000      -0.67700000       1.23490000
C       -0.14100000      -1.77270000       1.85210000
N        0.02790000      -1.92820000       3.20480000
O       -0.86910000      -2.50430000       1.20240000
H        0.80570000       2.05760000       0.24270000
H       -0.11270000       1.76090000      -1.23420000
H       -0.94600000       1.84730000       0.32260000
H       -0.71610000      -0.57640000      -0.40380000
H        1.47000000      -1.64660000      -0.74780000
H        3.48650000      -0.62110000       0.54230000
H        2.85500000       0.93850000      -0.01310000
H        2.35390000      -0.47390000       2.62060000
H        1.62800000       1.09710000       2.22350000
H        0.44430000      -1.20110000       3.76080000
H       -0.59530000      -2.57180000       3.66600000
