19
Properties=species:S:1:pos:R:3 gdb_101545=T pbc="F F F"
C        0.14500000       1.60120000      -0.18090000
C        0.00800000       0.08310000      -0.00640000
C        0.57420000      -0.37620000       1.33840000
O        1.95050000      -0.03580000       1.38060000
C       -1.44600000      -0.38180000      -0.14290000
C       -1.99330000      -0.31890000      -1.54880000
O       -1.34950000      -0.08680000      -2.54610000
C       -3.49540000      -0.59780000      -1.72320000
O       -4.24560000      -0.81530000      -0.80890000
H        1.18520000       1.90250000      -0.04320000
H       -0.17770000       1.91310000      -1.17710000
H       -0.46230000       2.13500000       0.56100000
H        0.59660000      -0.40770000      -0.79070000
H        0.01800000       0.10810000       2.15920000
H        0.43340000      -1.46450000       1.44550000
H        2.28830000      -0.24520000       2.25580000
H       -1.56560000      -1.42710000       0.18210000
H       -2.12400000       0.18280000       0.51080000
H       -3.81280000      -0.57240000      -2.78730000
