18
Properties=species:S:1:pos:R:3 gdb_121050=T pbc="F F F"
C       -0.09080000       1.45470000       0.16390000
C       -0.04830000      -0.05930000       0.06930000
O        0.64570000      -0.55720000       1.21510000
C        0.81370000      -1.93170000       1.22880000
C        1.60640000      -2.31860000       2.49270000
N        0.53310000      -2.76710000       3.34930000
C       -0.61600000      -3.04410000       2.65440000
O       -1.62170000      -3.56330000       3.04690000
O       -0.43690000      -2.61670000       1.35730000
H        0.92020000       1.87080000       0.19190000
H       -0.61470000       1.87070000      -0.70160000
H       -0.61710000       1.76740000       1.07000000
H       -1.05940000      -0.48190000       0.03770000
H        0.47810000      -0.38250000      -0.84310000
H        1.26580000      -2.28330000       0.29220000
H        2.33960000      -3.10710000       2.28000000
H        2.12380000      -1.44010000       2.88530000
H        0.67220000      -3.19310000       4.24890000
