13
Properties=species:S:1:pos:R:3 gdb_7707=T pbc="F F F"
N       -0.10430000       1.03780000      -0.78420000
C        0.01820000       0.05960000      -0.00050000
C       -1.14590000      -0.51970000       0.76760000
C       -1.09990000      -2.03900000       0.81930000
O       -2.04080000      -2.76780000       0.72860000
O        0.16030000      -2.54690000       0.97420000
C        1.18950000      -1.59870000       1.19000000
O        1.20980000      -0.59130000       0.20240000
H        0.79550000       1.28270000      -1.20170000
H       -1.10970000      -0.15290000       1.80380000
H       -2.08680000      -0.19070000       0.33290000
H        1.08620000      -1.15410000       2.18920000
H        2.13270000      -2.13720000       1.11150000
