18
Properties=species:S:1:pos:R:3 gdb_46939=T pbc="F F F"
O       -0.29770000       0.65490000       1.20250000
C       -0.15540000       1.33060000       0.21360000
C       -1.25050000       1.69540000      -0.77120000
C       -1.46790000       3.23470000      -0.72310000
C       -0.14800000       3.97160000      -0.43760000
C        0.40290000       3.95360000       1.04210000
C        1.58300000       3.08970000       0.57360000
C        1.10800000       3.17480000      -0.85340000
N        1.08490000       1.91720000      -0.12900000
H       -0.91980000       1.41020000      -1.77630000
H       -2.15940000       1.14220000      -0.53350000
H       -1.89850000       3.56940000      -1.67230000
H       -2.19630000       3.48140000       0.05680000
H       -0.17030000       4.98860000      -0.83320000
H        0.71670000       4.94980000       1.36100000
H       -0.23360000       3.51500000       1.81630000
H        2.58750000       3.06760000       0.97760000
H        1.66880000       3.23660000      -1.77910000
