23
Properties=species:S:1:pos:R:3 gdb_61389=T pbc="F F F"
C        0.42840000       1.38380000       0.31820000
C       -0.06940000      -0.06380000       0.15380000
C        0.19900000      -0.85120000       1.45140000
C       -1.58950000      -0.04310000      -0.10260000
C        0.59100000      -0.74530000      -1.07370000
C        2.12600000      -0.65240000      -1.21170000
O        2.84270000      -1.22310000      -0.11740000
C        2.55430000      -1.24530000      -2.48470000
C        2.88650000      -1.77500000      -3.51170000
H        1.48460000       1.42140000       0.60210000
H        0.30220000       1.95910000      -0.60650000
H       -0.13790000       1.89450000       1.10430000
H       -0.32360000      -0.38540000       2.29450000
H       -0.16790000      -1.88100000       1.36650000
H        1.26480000      -0.88850000       1.68130000
H       -1.83850000       0.55410000      -0.98690000
H       -1.97840000      -1.05510000      -0.26200000
H       -2.12160000       0.38720000       0.75280000
H        0.30850000      -1.80660000      -1.09580000
H        0.17270000      -0.30430000      -1.98750000
H        2.42030000       0.40290000      -1.20570000
H        2.71800000      -2.17820000      -0.15730000
H        3.19470000      -2.22580000      -4.42270000
