13
Properties=species:S:1:pos:R:3 gdb_2506=T pbc="F F F"
C        0.12580000       1.08850000      -0.71830000
N       -0.26260000       0.40380000       0.51320000
C       -1.47840000      -0.40020000       0.37320000
C       -1.38460000      -1.52430000      -0.57690000
C       -1.25320000      -2.41660000      -1.37030000
C       -1.88940000      -0.89260000       1.70350000
N       -2.20840000      -1.27960000       2.74320000
H        1.05220000       1.63730000      -0.53280000
H        0.27800000       0.41900000      -1.57840000
H       -0.64720000       1.81760000      -0.98460000
H        0.49080000      -0.19670000       0.83290000
H       -2.27120000       0.27870000       0.02760000
H       -1.15080000      -3.21360000      -2.06550000
