14
Properties=species:S:1:pos:R:3 gdb_21047=T pbc="F F F"
C        0.14070000       1.38700000      -0.05060000
N        0.20670000      -0.04850000       0.00740000
N        0.22800000      -0.81910000      -1.16090000
C        0.16110000      -2.02220000      -0.71580000
N        0.25840000      -3.19090000      -1.42350000
O        0.05610000      -2.13440000       0.63590000
C        0.04970000      -0.81850000       1.12250000
N       -0.07210000      -0.45150000       2.32830000
H        0.99000000       1.78380000      -0.61460000
H       -0.78870000       1.72630000      -0.52330000
H        0.17820000       1.75270000       0.97630000
H        0.13670000      -3.05920000      -2.41760000
H       -0.29870000      -3.94770000      -1.05180000
H       -0.14830000      -1.24650000       2.95450000
