18
Properties=species:S:1:pos:R:3 gdb_45614=T pbc="F F F"
O        0.04590000      -0.01980000       0.10560000
C        0.00420000       1.18810000       0.06520000
C       -1.20820000       2.11540000       0.27100000
C       -0.64530000       3.51080000       0.10300000
C        0.66470000       3.38600000      -0.15490000
N        1.06370000       2.03750000      -0.18180000
C       -1.40360000       4.76790000       0.20530000
C       -2.83810000       4.88210000      -0.27890000
C       -2.54340000       4.94020000       1.19330000
H       -1.98280000       1.86110000      -0.46150000
H       -1.63860000       1.92930000       1.26150000
H        1.39680000       4.16110000      -0.33250000
H        1.99720000       1.70430000      -0.35400000
H       -0.79340000       5.65300000       0.04840000
H       -3.12710000       5.79410000      -0.78920000
H       -3.31440000       3.98800000      -0.66580000
H       -2.82110000       4.08560000       1.80050000
H       -2.62770000       5.89280000       1.70440000
