15
Properties=species:S:1:pos:R:3 gdb_64690=T pbc="F F F"
C       -0.13790000       1.66370000       0.18280000
C       -0.11330000       0.15630000       0.12140000
C       -1.35020000      -0.52520000      -0.46720000
C       -1.64930000      -0.06190000      -1.82200000
N       -1.88290000       0.31740000      -2.88760000
O        1.12300000      -0.44190000      -0.26670000
C        0.68550000      -0.64840000       1.07870000
C        1.46140000      -0.02250000       2.12730000
N        2.06380000       0.46280000       2.98580000
H        0.77580000       2.04750000       0.63870000
H       -0.22680000       2.07450000      -0.82700000
H       -0.99510000       2.01030000       0.76850000
H       -1.19830000      -1.60850000      -0.49080000
H       -2.21860000      -0.32510000       0.17100000
H        0.37110000      -1.66480000       1.31150000
