19
Properties=species:S:1:pos:R:3 gdb_114600=T pbc="F F F"
C        0.27740000       1.62750000       0.08690000
C       -0.14250000       0.15770000      -0.01850000
C        0.51420000      -0.54710000      -1.18970000
O        1.97760000      -0.56370000      -1.12550000
C        2.00200000      -1.95970000      -1.35900000
C        1.34970000      -2.73470000      -0.28370000
C        0.45760000      -2.07240000      -1.32390000
C       -0.38730000      -2.84190000      -2.24240000
O       -0.35670000      -4.04580000      -2.36520000
H        1.36100000       1.70860000       0.20900000
H       -0.00190000       2.18610000      -0.81320000
H       -0.20100000       2.11140000       0.94300000
H        0.10260000      -0.37020000       0.90940000
H       -1.22990000       0.07930000      -0.14960000
H        0.22130000      -0.07130000      -2.13690000
H        2.69910000      -2.34940000      -2.09210000
H        1.37620000      -3.81330000      -0.40000000
H        1.36530000      -2.36100000       0.73510000
H       -1.07240000      -2.21950000      -2.86290000
