17
Properties=species:S:1:pos:R:3 gdb_98024=T pbc="F F F"
C        0.47230000       1.30020000       0.19550000
O        0.58050000      -0.12380000       0.05910000
C        0.39490000      -0.58810000      -1.19120000
O        0.15900000       0.10610000      -2.14960000
C        0.51770000      -2.02550000      -1.23160000
C        0.59610000      -3.22380000      -1.33980000
C        0.73520000      -4.68030000      -1.43890000
C        2.01000000      -5.06130000      -2.20740000
O        0.67170000      -5.30710000      -0.16390000
H        1.22100000       1.80420000      -0.42090000
H       -0.52050000       1.64150000      -0.10810000
H        0.64270000       1.50690000       1.25170000
H       -0.13350000      -5.07190000      -1.98200000
H        2.89690000      -4.67440000      -1.69550000
H        2.08100000      -6.15030000      -2.26220000
H        1.99350000      -4.64950000      -3.22030000
H        1.35230000      -4.91110000       0.39220000
