15
Properties=species:S:1:pos:R:3 gdb_31390=T pbc="F F F"
O        0.14250000       1.36130000      -0.25760000
C        0.04080000      -0.02020000      -0.08160000
C       -1.39370000      -0.46800000       0.02640000
N       -2.34610000       0.37290000      -0.04300000
C       -3.69060000      -0.06600000       0.06120000
N       -4.69090000       0.72330000      -0.00010000
C       -3.85910000      -1.50550000       0.24610000
C       -2.78700000      -2.29630000       0.30480000
O       -1.50880000      -1.80850000       0.19710000
H       -0.76730000       1.69670000      -0.26560000
H        0.50380000      -0.56540000      -0.91940000
H        0.56700000      -0.34760000       0.82930000
H       -4.35640000       1.68030000      -0.13140000
H       -4.85720000      -1.91280000       0.33340000
H       -2.78660000      -3.36950000       0.43800000
