12
Properties=species:S:1:pos:R:3 gdb_20320=T pbc="F F F"
C       -0.04600000      -1.14320000       0.44790000
C       -0.00050000       0.00680000       0.10820000
C        0.04910000       1.40470000      -0.30880000
C        1.41140000       2.01760000      -0.18140000
N        2.10940000       2.59970000      -1.11010000
C        3.23250000       2.97850000      -0.41460000
N        3.24000000       2.66010000       0.84950000
O        2.00940000       2.01080000       1.01420000
H       -0.08340000      -2.16050000       0.75070000
H       -0.24830000       1.50970000      -1.35630000
H       -0.65900000       1.99560000       0.28720000
H        4.06250000       3.50310000      -0.86500000
