18
Properties=species:S:1:pos:R:3 gdb_8141=T pbc="F F F"
C        0.04400000       1.50810000       0.07940000
C       -0.01770000       0.01580000      -0.00380000
C       -0.08450000      -0.73760000      -1.10650000
C       -0.05610000      -2.20050000      -0.79590000
O       -0.88390000      -3.07520000      -1.50310000
C        1.21750000      -2.70710000      -0.15400000
C        0.04500000      -2.27890000       0.71040000
C        0.01840000      -0.85180000       1.24660000
H        0.98140000       1.84580000       0.53980000
H       -0.03180000       1.97080000      -0.90840000
H       -0.76730000       1.90280000       0.70490000
H       -0.12630000      -0.36110000      -2.12340000
H       -0.41440000      -3.35200000      -2.29690000
H        1.39250000      -3.77760000      -0.20280000
H        2.10900000      -2.08860000      -0.19740000
H       -0.48400000      -3.06150000       1.24010000
H        0.89440000      -0.62420000       1.86930000
H       -0.86150000      -0.66750000       1.87840000
