17
Properties=species:S:1:pos:R:3 gdb_55563=T pbc="F F F"
C        0.28090000       0.86110000      -0.18220000
C       -0.66340000       0.01270000       0.63690000
O       -0.48280000      -0.25510000       1.80110000
C       -1.87020000      -0.56630000      -0.12140000
C       -1.47540000      -1.97080000      -0.59580000
O       -0.96410000      -2.15400000      -1.66960000
C       -1.73440000      -3.07490000       0.43500000
C       -1.20110000      -4.37770000       0.08150000
C       -0.76150000      -5.45700000      -0.20630000
H        1.16810000       1.11210000       0.39960000
H        0.55820000       0.32170000      -1.09500000
H       -0.22620000       1.77970000      -0.49960000
H       -2.71550000      -0.60950000       0.56880000
H       -2.11360000       0.03400000      -0.99930000
H       -1.33230000      -2.71770000       1.39380000
H       -2.82260000      -3.12530000       0.58580000
H       -0.36930000      -6.40940000      -0.46440000
