23
Properties=species:S:1:pos:R:3 gdb_86213=T pbc="F F F"
C        0.02950000       1.52950000      -0.05500000
C        0.01530000       0.00280000      -0.00320000
O        0.64740000      -0.45890000      -1.18840000
C        0.95710000      -1.84980000      -1.16390000
C        1.31340000      -2.25390000      -2.58720000
C        2.04960000      -2.12290000      -0.10870000
C        3.44740000      -1.62400000      -0.51870000
C        1.61350000      -1.48580000       1.18940000
C        0.68340000      -0.53540000       1.23590000
H        1.05830000       1.90000000      -0.03120000
H       -0.44510000       1.87660000      -0.97670000
H       -0.51390000       1.94840000       0.79730000
H       -1.04030000      -0.33330000      -0.00630000
H        0.05720000      -2.40800000      -0.85330000
H        2.14510000      -1.65570000      -2.96810000
H        1.59530000      -3.31080000      -2.63040000
H        0.45530000      -2.09660000      -3.24610000
H        2.10260000      -3.21100000       0.04080000
H        3.39960000      -0.56930000      -0.80440000
H        4.14980000      -1.71530000       0.31600000
H        3.85390000      -2.19520000      -1.35860000
H        2.09800000      -1.82640000       2.10180000
H        0.36590000      -0.10400000       2.18220000
