21
Properties=species:S:1:pos:R:3 gdb_115377=T pbc="F F F"
C       -0.04350000       1.60320000      -0.04720000
C        0.05220000       0.07440000       0.01990000
C        0.75430000      -0.50420000      -1.21750000
O        2.13020000      -0.14380000      -1.22490000
C        2.79960000      -0.59160000      -0.07630000
C        4.24100000      -0.09670000      -0.11030000
O        4.32550000       1.29990000       0.05330000
O        2.22870000      -0.07340000       1.10960000
C        0.84950000      -0.40360000       1.24130000
H        0.95050000       2.04470000      -0.15130000
H       -0.64430000       1.91940000      -0.90590000
H       -0.50890000       2.01000000       0.85650000
H       -0.95520000      -0.35750000       0.08110000
H        0.65510000      -1.60310000      -1.23110000
H        0.32920000      -0.11220000      -2.14560000
H        2.76320000      -1.69900000      -0.03860000
H        4.80090000      -0.63790000       0.66910000
H        4.67570000      -0.34480000      -1.08260000
H        3.75100000       1.51280000       0.79840000
H        0.50690000       0.07330000       2.16400000
H        0.74380000      -1.49470000       1.35920000
