15
Properties=species:S:1:pos:R:3 gdb_98013=T pbc="F F F"
C       -0.00840000       1.43540000       0.08600000
N        0.12670000      -0.00290000      -0.03600000
C        0.52100000      -0.60620000      -1.19160000
O        0.79650000      -0.01980000      -2.22310000
C        0.58700000      -2.06140000      -1.08360000
C        0.65580000      -3.26430000      -1.04100000
C        0.71930000      -4.71910000      -0.92490000
N        1.11210000      -5.33850000      -2.07190000
O        0.44410000      -5.30200000       0.10510000
H        0.66220000       1.83100000       0.85630000
H        0.25630000       1.87240000      -0.87710000
H       -1.03720000       1.71540000       0.33690000
H       -0.07540000      -0.59130000       0.75640000
H        1.33120000      -4.81930000      -2.90430000
H        1.18150000      -6.34300000      -2.07550000
