18
Properties=species:S:1:pos:R:3 gdb_60947=T pbc="F F F"
C       -1.18110000      -0.07460000       0.83110000
N        0.05870000      -0.07290000       0.06670000
C        1.12160000       0.68240000       0.47650000
O        1.15820000       1.36760000       1.47640000
C        0.09150000      -0.76120000      -1.18460000
C        1.17690000      -1.75670000      -1.55040000
C        1.51900000      -2.60990000      -0.33170000
O        0.11690000      -2.92560000      -0.10580000
C       -0.24250000      -2.22120000      -1.28820000
H       -1.99700000       0.38250000       0.25830000
H       -1.45560000      -1.10050000       1.09080000
H       -1.01140000       0.50750000       1.73680000
H        1.97390000       0.59090000      -0.22430000
H       -0.25940000      -0.19470000      -2.04940000
H        1.75350000      -1.68630000      -2.46210000
H        2.07270000      -3.51800000      -0.59090000
H        1.97990000      -2.11880000       0.53070000
H       -1.02100000      -2.63750000      -1.91710000
