16
Properties=species:S:1:pos:R:3 gdb_46960=T pbc="F F F"
N       -0.11480000       1.30640000       0.17980000
C       -0.02590000       0.07830000      -0.08370000
O        1.08380000      -0.52790000      -0.60940000
C        0.88770000      -1.93130000      -0.80370000
C       -0.63190000      -2.20190000      -0.65370000
N       -0.98420000      -3.26360000       0.28790000
C       -1.18200000      -2.63530000       1.50980000
N       -1.30450000      -1.36440000       1.51000000
C       -1.13350000      -0.94160000       0.10250000
H        0.76650000       1.78350000      -0.01850000
H        1.27490000      -2.18890000      -1.79340000
H        1.45800000      -2.48380000      -0.04690000
H       -1.10730000      -2.35970000      -1.62310000
H       -0.47970000      -4.13820000       0.26080000
H       -1.27440000      -3.24200000       2.40620000
H       -2.07560000      -0.52890000      -0.26650000
