12
Properties=species:S:1:pos:R:3 gdb_130486=T pbc="F F F"
O       -0.02500000       1.24670000       0.00920000
C        1.09940000       1.97010000       0.00200000
C        2.36230000       1.45700000      -0.01320000
C        2.43130000       0.05690000      -0.02140000
N        3.41560000      -0.81730000      -0.03570000
C        2.73060000      -2.02750000      -0.03550000
N        1.41050000      -2.01620000      -0.02230000
C        1.14600000      -0.66960000      -0.01260000
N       -0.03930000      -0.13450000       0.00200000
H        0.85870000       3.02610000       0.01000000
H        3.22770000       2.10680000      -0.01830000
H        3.28790000      -2.95720000      -0.04580000
