16
Properties=species:S:1:pos:R:3 gdb_33299=T pbc="F F F"
N        0.09060000      -3.73260000      -0.05570000
C        0.06800000      -2.57000000      -0.03660000
C        0.04250000      -1.20830000      -0.01400000
C        0.02650000       0.00390000      -0.00000000
C       -0.00750000       1.41460000       0.04770000
C        0.27820000       2.28180000      -1.16550000
C        1.17180000       2.43220000       0.01930000
C        0.49300000       3.26340000       1.11160000
C       -0.70460000       2.26010000       1.13510000
H        0.70060000       1.75420000      -2.01330000
H       -0.43420000       3.06210000      -1.42380000
H        2.22710000       2.19570000      -0.03360000
H        1.04470000       3.26350000       2.05290000
H        0.26430000       4.29780000       0.83830000
H       -1.68850000       2.64830000       0.85720000
H       -0.78720000       1.73080000       2.08490000
