19
Properties=species:S:1:pos:R:3 gdb_6478=T pbc="F F F"
C       -0.13020000       1.41530000       0.06470000
N        0.12930000      -0.00610000       0.08930000
C        1.14730000      -0.56330000      -0.82560000
C        1.50130000      -1.59150000       0.28160000
O        0.78490000      -2.81250000       0.16410000
C        2.94630000      -1.98620000       0.51200000
O        3.07430000      -2.76970000       1.68280000
C        0.83020000      -0.58520000       1.25500000
H        0.78260000       2.02400000       0.21100000
H       -0.57570000       1.69650000      -0.89540000
H       -0.84220000       1.67700000       0.85480000
H        0.76450000      -0.96050000      -1.77150000
H        1.97980000       0.13180000      -1.03070000
H       -0.15300000      -2.59490000       0.11860000
H        3.31510000      -2.52180000      -0.37830000
H        3.56440000      -1.09430000       0.64990000
H        2.39760000      -3.45380000       1.61010000
H        1.56480000       0.09820000       1.71180000
H        0.18330000      -0.99340000       2.03880000
