17
Properties=species:S:1:pos:R:3 gdb_26487=T pbc="F F F"
C       -0.33370000       1.33080000      -0.88130000
C       -0.10040000       0.07430000      -0.07930000
C        1.10950000      -0.74550000      -0.29650000
O        0.99470000       0.09180000       0.85850000
C       -1.31420000      -0.57960000       0.47120000
N       -2.51070000      -0.61650000      -0.07540000
C       -3.28660000      -1.34190000       0.80000000
C       -2.54960000      -1.73890000       1.88500000
N       -1.28420000      -1.24750000       1.65880000
H        0.60820000       1.71180000      -1.28240000
H       -1.02260000       1.11900000      -1.70290000
H       -0.78950000       2.10320000      -0.25510000
H        1.07700000      -1.81660000      -0.10410000
H        1.84590000      -0.42420000      -1.03180000
H       -4.32950000      -1.53430000       0.59930000
H       -2.79600000      -2.29980000       2.77090000
H       -0.48370000      -1.27680000       2.26910000
