14
Properties=species:S:1:pos:R:3 gdb_50442=T pbc="F F F"
O       -0.48610000       0.71220000      -0.77220000
C        0.13320000       0.99780000       0.21820000
C        1.32970000       1.94390000       0.19350000
C        1.52820000       2.63490000      -1.16360000
N        2.52270000       3.69630000      -1.11420000
C        2.68450000       4.28860000      -0.01960000
O        2.01210000       4.07170000       1.17400000
C        1.24640000       2.94330000       1.33550000
O        0.61050000       2.80530000       2.33790000
H       -0.11970000       0.58770000       1.21420000
H        2.21680000       1.32880000       0.41920000
H        1.82620000       1.90170000      -1.91540000
H        0.57720000       3.05530000      -1.51360000
H        3.39190000       5.10200000       0.11000000
