17
Properties=species:S:1:pos:R:3 gdb_127611=T pbc="F F F"
C        0.00500000       1.42490000      -0.02850000
N       -0.02100000      -0.01910000       0.03330000
N        0.01030000      -0.74350000      -1.11800000
C        0.04680000      -2.02700000      -0.73750000
C        0.04610000      -2.13860000       0.66020000
C        0.00680000      -0.83060000       1.11330000
C       -0.00360000      -0.78280000       2.56660000
C        0.02760000      -2.05850000       3.00740000
C        0.06100000      -3.05200000       1.85270000
H        1.02670000       1.81330000       0.05190000
H       -0.41500000       1.72930000      -0.98740000
H       -0.59850000       1.84230000       0.78150000
H        0.06480000      -2.79520000      -1.49700000
H       -0.02960000       0.10790000       3.18010000
H        0.03040000      -2.36670000       4.04520000
H       -0.79960000      -3.73290000       1.89450000
H        0.95470000      -3.68800000       1.90580000
