18
Properties=species:S:1:pos:R:3 gdb_16431=T pbc="F F F"
C       -0.15550000       1.60440000      -0.02020000
C       -0.04900000       0.08600000      -0.00020000
C        1.16130000      -0.59050000      -0.68550000
C        2.09410000      -0.34740000       0.54100000
O        2.52320000      -1.73730000       0.65260000
C        1.11290000      -1.80730000       0.28370000
C        0.68240000      -0.60040000       1.18460000
C        0.34980000      -0.63770000       2.64800000
H        0.79860000       2.08030000       0.23210000
H       -0.45440000       1.96610000      -1.01010000
H       -0.90360000       1.95850000       0.69760000
H       -1.01360000      -0.37420000      -0.24910000
H        1.45720000      -0.60590000      -1.73460000
H        2.82860000       0.43520000       0.72960000
H        0.65010000      -2.78640000       0.15710000
H        1.10630000      -1.21710000       3.18780000
H        0.32100000       0.36970000       3.07730000
H       -0.62650000      -1.10300000       2.82270000
