19
Properties=species:S:1:pos:R:3 gdb_75552=T pbc="F F F"
C       -0.17280000       1.62070000       0.08990000
C       -0.12430000       0.12080000       0.02030000
C       -0.06240000      -0.57080000      -1.11840000
C        0.03170000      -2.07160000      -1.19400000
C        0.36930000      -2.67520000       0.17620000
N       -0.38880000      -2.06670000       1.27320000
C       -0.16680000      -0.62230000       1.35850000
C        1.07790000      -0.35540000       2.11530000
N        2.05720000      -0.12190000       2.68260000
H        0.66970000       2.01690000       0.66960000
H       -0.13750000       2.06450000      -0.90810000
H       -1.08810000       1.96890000       0.58670000
H       -0.08010000      -0.02870000      -2.06190000
H       -0.91640000      -2.48420000      -1.57170000
H        0.79170000      -2.36040000      -1.93130000
H        0.18750000      -3.75370000       0.18880000
H        1.43360000      -2.52690000       0.39390000
H       -1.38140000      -2.22390000       1.13000000
H       -0.98270000      -0.20120000       1.96160000
