23
Properties=species:S:1:pos:R:3 gdb_120294=T pbc="F F F"
C       -0.13050000       1.55570000       0.10390000
C       -0.02740000       0.05810000       0.03570000
C       -1.24630000      -0.88200000       0.02380000
C       -0.47890000      -1.87900000       0.94860000
C        0.72790000      -0.93310000       0.93980000
C        1.20170000      -0.65430000      -0.46920000
C        1.25660000      -1.66660000      -1.59540000
C        2.49960000      -2.54680000      -1.51900000
O        2.47420000      -3.43810000      -2.62470000
H        0.83990000       2.01260000       0.32570000
H       -0.48120000       1.97540000      -0.84750000
H       -0.83500000       1.87300000       0.88200000
H       -2.10920000      -0.43880000       0.52800000
H       -1.57530000      -1.25070000      -0.95330000
H       -0.94090000      -1.96290000       1.93470000
H       -0.31290000      -2.89030000       0.56270000
H        1.35860000      -0.72420000       1.79730000
H        2.06320000       0.01440000      -0.46650000
H        0.37800000      -2.31840000      -1.59390000
H        1.25670000      -1.15070000      -2.56370000
H        3.40420000      -1.91620000      -1.53710000
H        2.50580000      -3.09390000      -0.56250000
H        3.25250000      -4.00040000      -2.57530000
