15
Properties=species:S:1:pos:R:3 gdb_50122=T pbc="F F F"
O       -0.11210000      -0.04020000      -0.04560000
C       -0.01950000       1.14260000       0.16640000
C        1.26220000       1.92730000       0.04380000
C        1.25570000       3.16900000      -0.92990000
C        1.58140000       4.07400000       0.27390000
O        0.51320000       3.87790000       1.22380000
C        1.56030000       2.91290000       1.19650000
C        2.31030000       5.29340000       0.28840000
C        2.93530000       6.31980000       0.25000000
H       -0.89830000       1.74990000       0.47160000
H        2.09030000       1.24730000      -0.16250000
H        2.05990000       3.11010000      -1.66410000
H        0.31300000       3.40580000      -1.42820000
H        2.10220000       2.73190000       2.11740000
H        3.48470000       7.22870000       0.22820000
