21
Properties=species:S:1:pos:R:3 gdb_89283=T pbc="F F F"
C        0.34400000       1.67140000      -0.12560000
C        0.04330000       0.18350000      -0.01130000
C        0.73020000      -0.80870000      -0.99930000
C        1.20100000      -1.70300000       0.18770000
C        0.78090000      -3.15600000       0.18730000
C        2.64850000      -1.36720000       0.65370000
C        2.06600000      -0.26710000       1.55940000
O        2.55730000       0.54530000       2.29080000
C        0.62170000      -0.62450000       1.19690000
H        1.42040000       1.86970000      -0.10770000
H       -0.05640000       2.07400000      -1.06260000
H       -0.10590000       2.23150000       0.70080000
H       -1.04050000       0.03190000      -0.03260000
H        0.04290000      -1.30200000      -1.69130000
H        1.54700000      -0.37600000      -1.58580000
H        1.29690000      -3.71350000      -0.60390000
H        1.01540000      -3.64130000       1.14160000
H       -0.29590000      -3.26050000       0.01450000
H        3.09600000      -2.16370000       1.26090000
H        3.37940000      -1.05670000      -0.09920000
H       -0.05060000      -0.83510000       2.03160000
