14
Properties=species:S:1:pos:R:3 gdb_129862=T pbc="F F F"
N       -0.00960000       1.37400000       0.01650000
C       -0.11360000      -0.00950000       0.01450000
C       -1.19330000      -0.83210000       0.08370000
C       -0.69460000      -2.18420000       0.04010000
C        0.67340000      -2.03250000      -0.05340000
N        1.25990000      -3.24210000      -0.10200000
N        0.30410000      -4.22320000      -0.04290000
C       -0.86490000      -3.59150000       0.04230000
O        1.09720000      -0.76370000      -0.07410000
H        0.52020000       1.72870000       0.80670000
H        0.40660000       1.73960000      -0.83440000
H       -2.21040000      -0.48170000       0.15630000
H        2.22880000      -3.49720000      -0.17040000
H       -1.76990000      -4.17760000       0.10080000
