13
Properties=species:S:1:pos:R:3 gdb_50071=T pbc="F F F"
O       -0.08610000      -0.27350000       0.15050000
C        0.57600000       0.44250000      -0.55610000
C        1.10010000       1.76390000      -0.07080000
O        2.23930000       2.27920000      -0.74280000
C        1.03400000       3.00490000      -0.90560000
C        0.42260000       3.00530000      -2.27800000
O        0.62740000       2.17110000      -3.12710000
C       -0.52580000       4.16930000      -2.59280000
O       -0.77830000       5.04490000      -1.80830000
H        0.85960000       0.18370000      -1.59290000
H        1.07260000       1.89830000       1.01010000
H        0.96890000       3.94990000      -0.37160000
H       -0.95150000       4.11190000      -3.61530000
