20
Properties=species:S:1:pos:R:3 gdb_14034=T pbc="F F F"
C        0.16260000       1.35860000      -0.58230000
C        1.42270000       1.61540000       0.28520000
C        1.31610000       0.15150000       0.82360000
C       -0.15340000       0.13190000       0.31440000
C        2.28640000      -0.81570000       0.09120000
C        3.37430000      -1.05550000       1.11050000
C        3.00850000      -0.65290000       2.32650000
C        1.61570000      -0.07000000       2.32340000
H       -0.58460000       2.15390000      -0.63240000
H        0.41870000       1.06300000      -1.60350000
H        2.34910000       1.89540000      -0.22400000
H        1.22640000       2.34730000       1.07520000
H       -0.85820000       0.38460000       1.11320000
H       -0.49980000      -0.78350000      -0.17440000
H        1.78820000      -1.76270000      -0.16730000
H        2.65960000      -0.40010000      -0.85270000
H        4.31340000      -1.53890000       0.86390000
H        3.60280000      -0.75560000       3.22790000
H        1.52980000       0.85900000       2.90020000
H        0.89940000      -0.77560000       2.77280000
