21
Properties=species:S:1:pos:R:3 gdb_38316=T pbc="F F F"
C       -0.07460000       1.60130000       0.11130000
C        1.47210000       1.43440000       0.05310000
C        1.25220000       0.13770000       0.89300000
C       -0.05370000       0.05030000       0.04360000
C        0.53000000      -0.20430000      -1.35350000
O       -0.34530000       0.17730000      -2.40420000
C        0.42350000       0.86920000      -3.38020000
C        1.44330000       1.70720000      -2.58820000
C        1.71020000       0.83120000      -1.34810000
H       -0.41000000       1.96740000       1.08420000
H       -0.58520000       2.13880000      -0.69000000
H        2.14930000       2.22540000       0.37840000
H        1.98870000      -0.66730000       0.79670000
H        1.05200000       0.33720000       1.94820000
H       -0.90630000      -0.55740000       0.34580000
H        0.85660000      -1.24420000      -1.49150000
H        0.94070000       0.15570000      -4.04310000
H       -0.26430000       1.46190000      -3.99010000
H        2.34850000       1.91190000      -3.16560000
H        1.00540000       2.66920000      -2.30510000
H        2.68820000       0.34640000      -1.40650000
