19
Properties=species:S:1:pos:R:3 gdb_71464=T pbc="F F F"
C        0.02760000       1.55320000       0.06080000
C        0.04750000       0.04850000       0.06740000
C       -1.26010000      -0.78130000       0.25520000
C       -0.36920000      -1.86990000       0.84120000
C        0.72210000      -0.88940000       1.16220000
C        0.94550000      -1.87090000       0.01660000
C        0.81420000      -0.75260000      -1.02250000
C        1.80720000      -2.99970000      -0.02100000
C        2.54470000      -3.95040000      -0.07280000
H        1.04170000       1.96590000       0.02730000
H       -0.51370000       1.92900000      -0.81590000
H       -0.46830000       1.95060000       0.95300000
H       -1.90160000      -0.34430000       1.02680000
H       -1.85400000      -0.99900000      -0.64010000
H       -0.64930000      -2.75520000       1.39640000
H        1.30870000      -0.71070000       2.05180000
H        0.28780000      -0.96710000      -1.95980000
H        1.79110000      -0.31120000      -1.23870000
H        3.19370000      -4.78900000      -0.11550000
