17
Properties=species:S:1:pos:R:3 gdb_54577=T pbc="F F F"
N        0.13390000       0.70650000       0.99540000
C       -0.04990000       0.06110000      -0.19550000
O        0.70880000       0.13380000      -1.14290000
C       -1.27360000      -0.79650000      -0.22670000
C       -2.24210000      -0.97370000      -1.37940000
C       -3.21270000      -1.44620000      -0.27800000
C       -2.63940000      -2.77690000       0.24990000
C       -1.51690000      -1.89930000       0.77020000
N       -2.37390000      -0.67150000       0.79970000
H        0.87770000       1.38480000       1.04150000
H       -0.66210000       0.82210000       1.60440000
H       -2.53170000      -0.00530000      -1.79350000
H       -1.99460000      -1.66690000      -2.18760000
H       -4.28380000      -1.26870000      -0.34400000
H       -3.23360000      -3.17410000       1.07640000
H       -2.41850000      -3.57070000      -0.47020000
H       -0.80350000      -2.10610000       1.55980000
