18
Properties=species:S:1:pos:R:3 gdb_10306=T pbc="F F F"
C       -0.10120000       1.48700000       0.22040000
N       -0.06360000       0.06030000      -0.09800000
C        0.85150000      -0.63940000       0.80380000
C       -1.42060000      -0.51100000      -0.15610000
C       -2.11630000      -0.04460000      -1.46160000
O       -1.30690000      -0.30690000      -2.57590000
C       -1.38690000      -1.98090000      -0.14080000
N       -1.41060000      -3.13550000      -0.11860000
H        0.91570000       1.88540000       0.18330000
H       -0.70010000       2.03610000      -0.50870000
H       -0.51140000       1.68580000       1.22690000
H        0.53930000      -0.58100000       1.86120000
H        0.93190000      -1.69060000       0.52450000
H        1.84190000      -0.18440000       0.71750000
H       -2.03410000      -0.19850000       0.71010000
H       -3.05780000      -0.58820000      -1.58350000
H       -2.36360000       1.02410000      -1.36660000
H       -0.40050000      -0.13000000      -2.28290000
