11
Properties=species:S:1:pos:R:3 gdb_4246=T pbc="F F F"
N       -0.09000000       1.31250000       0.13970000
C        0.02770000       0.06180000      -0.02600000
N       -1.13390000      -0.72360000      -0.08790000
C       -1.19070000      -2.07530000      -0.26070000
O       -2.17600000      -2.74580000      -0.31380000
O        0.06470000      -2.67200000      -0.38080000
C        1.17380000      -1.89500000      -0.31820000
N        1.23660000      -0.63800000      -0.15780000
H        0.83650000       1.73560000       0.16280000
H       -2.01870000      -0.24400000       0.00430000
H        2.06850000      -2.50100000      -0.42710000
