10
Properties=species:S:1:pos:R:3 gdb_21784=T pbc="F F F"
O       -0.06110000      -0.02880000      -0.00250000
C       -0.01110000       1.16920000       0.00770000
C        1.26760000       1.96060000       0.00070000
C        1.26360000       3.34910000       0.01180000
N        2.40760000       4.02590000       0.00510000
N        3.53890000       3.33600000      -0.01210000
N        3.54770000       2.01120000      -0.02270000
N        2.42950000       1.30640000      -0.01660000
H       -0.92440000       1.80300000       0.02320000
H        0.34820000       3.93580000       0.02570000
