16
Properties=species:S:1:pos:R:3 gdb_79559=T pbc="F F F"
O       -0.01480000       1.39160000       0.00420000
C       -0.07860000       0.00200000       0.06490000
C       -0.44560000      -0.78970000       1.29840000
C       -1.55490000      -0.11060000       2.06310000
N       -2.82520000      -0.82500000       2.03160000
C       -2.43570000      -0.09480000       0.81850000
C       -3.25680000       0.95620000       0.30840000
C       -3.89070000       1.86010000      -0.17130000
C       -1.34560000      -0.79880000       0.02550000
H       -0.90990000       1.74910000      -0.00150000
H        0.74380000      -0.43550000      -0.49820000
H        0.17600000      -1.59340000       1.67780000
H       -1.44640000       0.68180000       2.79330000
H       -2.69890000      -1.82820000       1.91010000
H       -4.47200000       2.64820000      -0.58250000
H       -1.52230000      -1.60090000      -0.68310000
