23
Properties=species:S:1:pos:R:3 gdb_94558=T pbc="F F F"
C       -1.40950000       0.73050000       0.50030000
C       -0.32680000      -0.28980000       0.21270000
O        0.54250000       0.13050000      -0.86690000
C        1.71630000      -0.26140000      -0.13510000
C        0.90430000      -0.49970000       1.15750000
C        1.10670000       0.44130000       2.33310000
C        0.21440000       0.13610000       3.52470000
C        2.51000000       0.91410000       2.64320000
C        1.49140000       1.88340000       2.09570000
H       -0.99470000       1.67610000       0.85530000
H       -1.96680000       0.92450000      -0.42230000
H       -2.11720000       0.35120000       1.24440000
H       -0.79540000      -1.25310000      -0.04180000
H        2.17480000      -1.17030000      -0.54810000
H        2.47200000       0.53220000      -0.12290000
H        0.97600000      -1.52750000       1.52790000
H        0.37570000      -0.88790000       3.88270000
H        0.42360000       0.81550000       4.35680000
H       -0.84690000       0.23690000       3.27540000
H        2.79340000       1.00230000       3.68670000
H        3.32160000       0.60480000       1.99290000
H        1.60870000       2.22880000       1.07420000
H        1.08510000       2.63250000       2.76750000
