14
Properties=species:S:1:pos:R:3 gdb_78160=T pbc="F F F"
O       -0.08900000       1.40080000       0.06130000
C       -0.04530000       0.01680000      -0.00920000
C       -1.33930000      -0.73450000       0.03750000
C       -0.51420000      -0.73710000      -1.24320000
C       -1.29680000       0.08800000      -2.21330000
O       -1.06820000       0.31850000      -3.36030000
O       -2.41980000       0.58990000      -1.57680000
C       -2.55250000       0.06370000      -0.29880000
N       -3.56250000       0.21750000       0.43100000
H        0.64890000       1.76160000      -0.44310000
H        0.78310000      -0.45600000       0.51700000
H       -1.45820000      -1.58370000       0.69560000
H        0.05110000      -1.57480000      -1.62790000
H       -4.26810000       0.79100000      -0.03360000
