17
Properties=species:S:1:pos:R:3 gdb_120366=T pbc="F F F"
C        1.22020000       0.80710000      -0.18460000
O       -0.02650000       0.17020000       0.04490000
C       -0.53010000      -0.58140000      -1.02620000
C       -0.02400000      -2.04840000      -1.06450000
N       -1.02430000      -2.92000000      -1.70010000
C       -0.41370000      -3.55140000      -2.62500000
N        0.93990000      -3.26740000      -2.75810000
C        1.29060000      -2.29340000      -1.82780000
O        2.38500000      -1.79820000      -1.70230000
H        2.03220000       0.08730000      -0.33200000
H        1.17170000       1.46440000      -1.06650000
H        1.42260000       1.41900000       0.69780000
H       -1.61310000      -0.64460000      -0.88740000
H       -0.33780000      -0.08770000      -1.99120000
H        0.11200000      -2.35610000      -0.02010000
H       -0.88050000      -4.27430000      -3.28640000
H        1.56990000      -3.63080000      -3.45520000
