21
Properties=species:S:1:pos:R:3 gdb_40782=T pbc="F F F"
C        1.02050000      -0.99190000      -0.56850000
C       -0.03560000       0.02210000      -0.85040000
N        0.66650000       0.00820000       0.42990000
C       -0.04710000      -0.40750000       1.63450000
C       -0.83060000       0.77610000       2.25130000
C       -1.88250000       0.13900000       3.18470000
C       -2.16840000      -1.20880000       2.54440000
N       -2.41640000      -1.12230000       1.09000000
C       -1.08070000      -1.53700000       1.59020000
H        0.69210000      -2.01890000      -0.42170000
H        2.01310000      -0.89510000      -1.00090000
H        0.18620000       0.87380000      -1.48840000
H       -1.06580000      -0.31830000      -0.87560000
H        0.72880000      -0.73620000       2.34070000
H       -0.16930000       1.47750000       2.76390000
H       -1.32770000       1.31700000       1.44280000
H       -1.47150000      -0.02650000       4.18790000
H       -2.77880000       0.75770000       3.29330000
H       -2.67820000      -1.98350000       3.10880000
H       -2.92430000      -1.95150000       0.79170000
H       -0.76270000      -2.56330000       1.43650000
