13
Properties=species:S:1:pos:R:3 gdb_21168=T pbc="F F F"
C        0.13700000       1.50170000       0.03610000
N       -0.16700000       0.08640000      -0.12300000
C        0.47770000      -0.66400000      -1.05730000
C        0.59900000      -2.02720000      -1.21310000
O        0.11230000      -2.98840000      -0.38770000
N        1.29350000      -2.24590000      -2.34640000
N        1.62390000      -1.16110000      -2.91470000
O        1.09490000      -0.08360000      -2.07860000
H        1.15970000       1.68500000       0.39320000
H        0.01310000       2.01000000      -0.92240000
H       -0.56980000       1.93050000       0.74870000
H       -0.39390000      -0.42330000       0.71740000
H        0.40050000      -3.84110000      -0.73280000
