21
Properties=species:S:1:pos:R:3 gdb_39249=T pbc="F F F"
C       -0.12570000       1.40830000      -0.08730000
C        1.31660000       0.97980000       0.02140000
C        1.94410000       0.87480000       1.41490000
C        1.54310000      -0.53100000       1.92640000
C        0.16310000      -0.81930000       1.29340000
C       -0.12970000      -2.29770000       0.90790000
C       -0.19510000      -2.28220000      -0.60430000
C       -0.02510000      -1.05970000      -1.11360000
C        0.20500000      -0.06040000      -0.05170000
H       -0.60630000       1.84880000       0.78330000
H       -0.45330000       1.82900000      -1.03380000
H        1.96330000       1.15590000      -0.83160000
H        3.03020000       0.99970000       1.38080000
H        1.55770000       1.65790000       2.07910000
H        2.26390000      -1.26580000       1.54640000
H        1.54520000      -0.60990000       3.01860000
H       -0.63080000      -0.42890000       1.93940000
H        0.65240000      -2.97730000       1.27350000
H       -1.06890000      -2.65990000       1.34470000
H       -0.35750000      -3.18260000      -1.18680000
H       -0.03500000      -0.80860000      -2.16880000
