21
Properties=species:S:1:pos:R:3 gdb_39094=T pbc="F F F"
C       -0.09690000       1.57210000       0.18190000
C        1.43440000       1.42040000       0.00640000
C        1.79740000       0.62950000       1.29170000
C        0.63160000      -0.43500000       1.29860000
C       -0.06020000       0.01550000       0.01230000
C       -1.11470000      -0.65900000      -0.82240000
O       -0.94640000      -0.08480000      -2.12460000
C        0.40220000       0.40060000      -2.30370000
C        1.13400000       0.24330000      -0.96580000
H       -0.46400000       1.96730000       1.13380000
H       -0.59490000       2.07500000      -0.64670000
H        2.08370000       2.25710000      -0.25640000
H        2.78270000       0.15840000       1.22760000
H        1.78820000       1.26820000       2.17950000
H        1.00340000      -1.46240000       1.24050000
H       -0.00430000      -0.35400000       2.18500000
H       -0.96360000      -1.75100000      -0.84900000
H       -2.14570000      -0.46170000      -0.51000000
H        0.89410000      -0.18970000      -3.08650000
H        0.33970000       1.43620000      -2.65830000
H        1.89380000      -0.54370000      -1.00840000
