15
Properties=species:S:1:pos:R:3 gdb_125355=T pbc="F F F"
C        0.22240000       1.48690000       0.13990000
C        0.05850000       0.01160000       0.00540000
C       -0.06870000      -0.81770000      -1.08510000
N       -0.19230000      -2.10720000      -0.66400000
N       -0.14680000      -2.13740000       0.63030000
N        0.00390000      -0.85520000       1.05580000
C        0.06950000      -0.59920000       2.47870000
C        1.36320000      -0.04960000       2.90400000
N        2.36960000       0.40670000       3.23880000
H        1.16090000       1.74780000       0.64020000
H        0.22640000       1.94810000      -0.84960000
H       -0.59550000       1.93810000       0.71380000
H       -0.07790000      -0.55840000      -2.13160000
H       -0.72530000       0.08990000       2.78510000
H       -0.10560000      -1.55950000       2.97050000
