20
Properties=species:S:1:pos:R:3 gdb_11462=T pbc="F F F"
C        0.16080000       1.54580000       0.02130000
C        0.02810000       0.02000000      -0.02520000
C        0.88680000      -0.59390000      -1.14790000
O        2.16220000      -0.80450000      -0.56260000
C        1.92570000      -1.33350000       0.74560000
C        3.16850000      -1.04410000       1.57320000
O        4.32550000      -1.61370000       0.99670000
C        0.62100000      -0.66520000       1.24000000
H        1.21460000       1.83610000       0.09260000
H       -0.25650000       2.00940000      -0.87900000
H       -0.36280000       1.96370000       0.88720000
H       -1.02450000      -0.24890000      -0.15670000
H        0.45960000      -1.54940000      -1.49430000
H        1.01620000       0.06220000      -2.01320000
H        1.79530000      -2.42480000       0.66740000
H        3.26680000       0.04870000       1.68730000
H        3.06030000      -1.47730000       2.57350000
H        4.32040000      -1.34220000       0.07130000
H        0.82750000       0.07470000       2.02060000
H       -0.06160000      -1.40480000       1.66500000
