19
Properties=species:S:1:pos:R:3 gdb_36414=T pbc="F F F"
C       -0.08430000      -1.19950000       0.00170000
C       -0.04230000       0.00000000       0.05640000
C        0.01090000       1.45570000       0.10120000
C        1.42960000       2.02560000      -0.00040000
C        1.49580000       3.56940000      -0.06300000
C        2.78400000       3.88850000       0.69330000
C        2.73970000       3.81280000       2.20850000
C        3.15930000       2.61650000       1.40080000
O        2.16430000       1.65210000       1.17080000
H       -0.11950000      -2.25980000      -0.03500000
H       -0.58550000       1.87020000      -0.72200000
H       -0.43710000       1.82080000       1.03380000
H        1.92500000       1.59810000      -0.88560000
H        1.52920000       3.92530000      -1.09630000
H        0.61720000       4.01980000       0.41400000
H        3.52980000       4.51770000       0.22320000
H        3.50380000       4.35210000       2.75910000
H        1.77030000       3.76440000       2.69400000
H        4.17080000       2.22530000       1.44580000
