18
Properties=species:S:1:pos:R:3 gdb_76536=T pbc="F F F"
C       -0.12790000       1.55350000       0.26600000
C        0.04040000       0.05620000       0.12750000
N        1.29340000      -0.59070000      -0.25190000
C        2.49200000       0.18750000      -0.53740000
C        0.85110000      -0.71800000       1.11630000
C        1.47740000      -0.26190000       2.43600000
O        1.08170000      -1.53500000       3.03530000
C        0.54220000      -2.00510000       1.84980000
O        0.03410000      -3.05790000       1.64760000
H        0.70890000       2.03050000       0.78150000
H       -0.23230000       2.02290000      -0.71780000
H       -1.03760000       1.77200000       0.83440000
H       -0.82740000      -0.45360000      -0.28930000
H        2.64270000       1.06580000       0.10690000
H        3.36370000      -0.46510000      -0.43280000
H        2.44820000       0.52780000      -1.57590000
H        2.56450000      -0.14900000       2.44490000
H        1.00000000       0.57520000       2.95050000
