20
Properties=species:S:1:pos:R:3 gdb_95690=T pbc="F F F"
C       -0.08110000       1.57190000       0.05750000
C        0.00670000       0.04140000       0.00520000
C        0.54430000      -0.43740000      -1.34870000
C        0.69300000      -1.95550000      -1.45340000
N        1.73560000      -2.51040000      -0.58570000
C        1.56840000      -2.75050000       0.76140000
O        2.09820000      -3.65930000       1.34890000
O        0.74020000      -1.88260000       1.40730000
C        0.85970000      -0.47160000       1.16720000
H        0.91120000       2.02910000      -0.03370000
H       -0.69720000       1.95580000      -0.76130000
H       -0.52190000       1.91510000       0.99900000
H       -1.00100000      -0.37350000       0.14620000
H       -0.13220000      -0.10300000      -2.14460000
H        1.52000000       0.02750000      -1.54240000
H       -0.27460000      -2.43750000      -1.25470000
H        0.97510000      -2.21710000      -2.47680000
H        2.30610000      -3.23170000      -1.00130000
H        1.91510000      -0.21180000       1.01590000
H        0.52920000      -0.01040000       2.10210000
