10
Properties=species:S:1:pos:R:3 gdb_132243=T pbc="F F F"
F        0.10220000       0.10770000      -0.12010000
C       -0.06890000       1.38410000       0.03480000
N       -1.19930000       1.92020000      -0.14740000
C       -1.28340000       3.29270000       0.04280000
O       -2.25830000       3.95350000      -0.08380000
O       -0.09270000       3.95540000       0.42290000
C        1.08400000       3.34200000       0.60410000
N        2.11500000       3.95600000       0.93910000
O        1.08020000       1.94990000       0.39010000
H        2.91330000       3.33290000       1.03040000
