15
Properties=species:S:1:pos:R:3 gdb_66016=T pbc="F F F"
O        0.20990000       1.46370000       0.90980000
C       -0.00800000       0.17180000       0.40910000
C        0.44250000      -0.17270000      -1.03390000
O        1.32830000      -1.21920000      -0.51080000
C        1.03960000      -0.90790000       0.78730000
O        1.52300000      -1.34460000       1.78130000
C       -1.42960000      -0.20110000       0.77150000
C       -2.55930000       0.13970000      -0.09770000
O       -2.06200000      -1.20090000      -0.01860000
H        1.14300000       1.57250000       1.12330000
H       -0.30930000      -0.60640000      -1.69220000
H        1.01750000       0.61410000      -1.52550000
H       -1.59510000      -0.28150000       1.84500000
H       -3.54220000       0.29870000       0.34030000
H       -2.37900000       0.65030000      -1.04230000
