14
Properties=species:S:1:pos:R:3 gdb_20465=T pbc="F F F"
C        0.21800000       1.50790000       0.07360000
O        1.20900000       0.48570000      -0.05180000
C       -0.16610000       0.08400000       0.01030000
C       -0.54470000      -0.67690000       1.21570000
C       -1.68220000      -1.37730000       1.56990000
C       -1.41340000      -1.85230000       2.87160000
N       -0.20580000      -1.48930000       3.29620000
N        0.29640000      -0.76960000       2.27650000
H        0.19100000       2.01940000       1.03390000
H        0.08650000       2.13910000      -0.80380000
H       -0.57610000      -0.28740000      -0.92760000
H       -2.57290000      -1.51510000       0.97850000
H       -2.04950000      -2.44550000       3.51210000
H        1.24410000      -0.43040000       2.30600000
