16
Properties=species:S:1:pos:R:3 gdb_48649=T pbc="F F F"
O       -0.03170000      -0.11070000      -0.06090000
C        0.04940000       1.08210000      -0.21510000
C        1.30050000       1.85530000      -0.12390000
C        1.30470000       3.30890000       0.30540000
C        1.81570000       2.99940000      -1.07170000
C        3.18850000       2.31200000      -0.95990000
N        2.61610000       1.23970000      -0.10020000
C        1.24320000       3.51770000      -2.26320000
C        0.79090000       3.96690000      -3.28400000
H       -0.84390000       1.71050000      -0.43480000
H        0.33580000       3.79710000       0.33150000
H        1.99760000       3.61610000       1.08540000
H        3.54480000       1.91230000      -1.91260000
H        3.97380000       2.92750000      -0.50590000
H        3.02500000       1.16370000       0.82680000
H        0.38570000       4.35760000      -4.18450000
