20
Properties=species:S:1:pos:R:3 gdb_88606=T pbc="F F F"
C        3.00560000      -1.45690000       1.30600000
N        1.78640000      -1.23660000       0.53380000
C        0.54790000      -1.73420000       1.11980000
C        0.80990000      -0.26230000       1.03670000
C        1.06320000       0.63720000       2.21100000
C       -0.07260000       1.05520000       3.13640000
O       -1.26420000       0.31120000       3.12570000
C        1.08950000       0.27710000       3.69130000
O        0.83620000      -1.00980000       4.15510000
H        2.85140000      -1.48550000       2.39320000
H        3.43860000      -2.41340000       0.99610000
H        3.72930000      -0.66930000       1.07180000
H       -0.14980000      -2.20120000       0.42790000
H        0.60730000      -2.19200000       2.10170000
H        0.32930000       0.27330000       0.21560000
H        1.73100000       1.46200000       1.96570000
H       -0.21310000       2.10610000       3.37790000
H       -1.53160000       0.15990000       2.21330000
H        1.82760000       0.79240000       4.29910000
H       -0.12330000      -1.12730000       4.07940000
