19
Properties=species:S:1:pos:R:3 gdb_57200=T pbc="F F F"
C        0.02910000       1.34740000       0.36270000
C       -0.01240000      -0.12650000       0.03610000
O        0.01220000      -0.97910000       0.89560000
C       -0.00570000      -0.58060000      -1.43850000
O        0.58980000      -1.84730000      -1.50450000
C       -1.43740000      -0.59760000      -2.02390000
C       -2.15100000       0.72550000      -2.20390000
C       -1.80320000      -1.74190000      -2.87240000
O       -2.24690000      -1.65640000      -1.51070000
H        1.06930000       1.68260000       0.25920000
H       -0.56810000       1.95040000      -0.32380000
H       -0.28610000       1.51240000       1.39410000
H        0.59410000       0.12320000      -2.03230000
H        0.40570000      -2.25230000      -0.64150000
H       -1.52620000       1.44370000      -2.74620000
H       -3.07370000       0.57970000      -2.77020000
H       -2.42540000       1.16650000      -1.24090000
H       -2.58260000      -1.61110000      -3.62220000
H       -1.06750000      -2.51550000      -3.06550000
