19
Properties=species:S:1:pos:R:3 gdb_65363=T pbc="F F F"
N       -0.00960000       1.45900000       0.03280000
C       -0.00890000       0.01810000      -0.00220000
C       -0.47120000      -0.69000000       1.26360000
C       -1.36750000      -0.68760000       0.06010000
C       -2.63250000       0.10510000       0.01590000
C       -3.49180000       0.08510000      -1.22620000
C       -3.96080000      -0.61340000       0.02480000
C        1.02690000      -0.62120000      -0.78670000
N        1.86410000      -1.09480000      -1.43150000
H        0.86470000       1.80630000       0.41530000
H       -0.10170000       1.83950000      -0.90440000
H        0.02980000      -1.60790000       1.54660000
H       -0.72630000      -0.02510000       2.08110000
H       -1.40340000      -1.62170000      -0.49430000
H       -2.58520000       1.04600000       0.55190000
H       -3.98510000       1.00400000      -1.52270000
H       -3.16730000      -0.53220000      -2.05770000
H       -3.95130000      -1.69840000       0.03260000
H       -4.77480000      -0.17420000       0.59070000
