20
Properties=species:S:1:pos:R:3 gdb_81654=T pbc="F F F"
C       -0.23360000       1.39370000       0.04410000
C        0.05780000      -0.10140000      -0.01110000
C        0.94360000      -0.55000000      -1.21080000
C        2.18860000      -0.45770000      -0.29120000
C        1.22040000      -0.57840000       0.92290000
N        1.05660000      -1.93450000       1.39180000
C        0.80700000      -2.90090000       0.61860000
O        0.63160000      -3.01720000      -0.72440000
C        0.64730000      -1.95620000      -1.69630000
H        0.67800000       1.99030000      -0.07230000
H       -0.92560000       1.68950000      -0.75210000
H       -0.68840000       1.66730000       1.00190000
H       -0.86980000      -0.66810000       0.12180000
H        0.93050000       0.10290000      -2.09070000
H        2.95070000      -1.23580000      -0.38100000
H        2.67200000       0.52070000      -0.34300000
H        1.43440000       0.06290000       1.78190000
H        0.69810000      -3.90090000       1.03760000
H       -0.33790000      -1.98070000      -2.17890000
H        1.39250000      -2.25640000      -2.44280000
