16
Properties=species:S:1:pos:R:3 gdb_29463=T pbc="F F F"
N        0.00910000       1.43210000       0.15350000
C        0.04200000       0.03520000       0.03580000
C       -1.01630000      -0.83580000       0.00710000
O       -0.58610000      -2.15390000      -0.02100000
C        0.75240000      -2.08190000      -0.02130000
C        1.21050000      -0.79970000       0.01660000
C        2.67400000      -0.85450000       0.02260000
C        3.06010000      -2.14710000      -0.01260000
C        1.85570000      -3.08470000      -0.04410000
H        0.72920000       1.88450000      -0.39520000
H       -0.89010000       1.82670000      -0.09080000
H       -2.08400000      -0.69620000       0.01430000
H        3.33830000      -0.00030000       0.05580000
H        4.07830000      -2.51170000      -0.01560000
H        1.84650000      -3.76280000       0.81930000
H        1.85440000      -3.71820000      -0.94080000
