18
Properties=species:S:1:pos:R:3 gdb_44798=T pbc="F F F"
O        0.10620000       0.02330000       0.07310000
C        0.07100000       1.22010000       0.19460000
C       -1.10020000       2.23080000       0.27330000
C       -0.06850000       3.31990000      -0.05330000
C        0.94560000       3.37230000       1.02830000
C        1.10740000       2.27900000      -0.02480000
C        2.33760000       2.13890000      -0.84550000
C        3.17030000       0.90890000      -0.74880000
N        2.39830000       1.19050000      -1.97090000
H       -1.82300000       2.02650000      -0.52140000
H       -1.63010000       2.32890000       1.22540000
H       -0.20000000       4.10480000      -0.78590000
H        1.70160000       4.14800000       0.95060000
H        0.67600000       3.11830000       2.05030000
H        2.84350000       3.08150000      -1.05030000
H        4.24920000       0.97950000      -0.85580000
H        2.81630000       0.11710000      -0.09600000
H        1.56640000       0.60400000      -1.96660000
