18
Properties=species:S:1:pos:R:3 gdb_35338=T pbc="F F F"
C       -0.20520000      -1.32180000      -0.04350000
C       -0.11590000      -0.12290000       0.02130000
C       -0.05180000       1.32590000       0.02480000
C       -0.30650000       2.08790000       1.40220000
C        1.21570000       2.30570000       1.39180000
C        2.50130000       3.16970000       1.24770000
C        2.68170000       1.81390000       0.43170000
C        2.14030000       1.06520000       1.65580000
N        1.27170000       2.11340000      -0.09500000
H       -0.26970000      -2.38090000      -0.08980000
H       -0.69210000       1.69060000      -0.78270000
H       -0.89740000       2.99150000       1.24150000
H       -0.71800000       1.50190000       2.22490000
H        2.39090000       4.06860000       0.64160000
H        3.15640000       3.30110000       2.11210000
H        3.51580000       1.55590000      -0.22500000
H        2.75090000       1.08560000       2.56320000
H        1.71270000       0.08060000       1.48390000
