20
Properties=species:S:1:pos:R:3 gdb_17566=T pbc="F F F"
C       -0.03030000       1.52380000       0.04150000
C        0.03620000       0.01330000       0.05870000
C        0.89530000      -0.81560000      -0.97110000
C        0.72430000      -1.93110000       0.11670000
C        0.83530000      -0.77120000       1.14050000
C       -0.79010000      -2.19550000      -0.00060000
C       -1.73610000      -1.69480000       1.06390000
C       -1.29750000      -0.76620000      -0.04320000
H        0.97010000       1.96860000       0.06890000
H       -0.53240000       1.88760000      -0.86280000
H       -0.59040000       1.90330000       0.90370000
H        0.45990000      -1.00100000      -1.95790000
H        1.92290000      -0.45110000      -1.06820000
H        1.38490000      -2.79710000       0.16490000
H        1.86090000      -0.40160000       1.21480000
H        0.42530000      -0.88480000       2.14540000
H       -1.12910000      -2.94960000      -0.70200000
H       -2.75600000      -2.05960000       0.98400000
H       -1.41660000      -1.55210000       2.08930000
H       -2.02380000      -0.43040000      -0.77600000
