22
Properties=species:S:1:pos:R:3 gdb_104930=T pbc="F F F"
C        0.39920000       1.42590000       0.40030000
C       -0.26690000       0.16040000      -0.15430000
C        0.49450000      -0.42310000      -1.33400000
N        1.85530000      -0.96490000      -1.07480000
C        0.81480000      -1.90590000      -1.47940000
C        0.36690000      -2.86730000      -0.39110000
C        0.88290000      -2.57740000      -2.84340000
C        0.33580000       0.35980000      -2.59790000
O       -0.49870000       1.21370000      -2.77310000
H        1.42350000       1.21150000       0.71940000
H        0.42920000       2.21770000      -0.35350000
H       -0.15530000       1.80740000       1.26290000
H       -0.35870000      -0.58160000       0.64030000
H       -1.27930000       0.39530000      -0.49800000
H        2.47580000      -0.74680000      -1.85510000
H        0.52620000      -2.45430000       0.60440000
H       -0.69030000      -3.12880000      -0.50530000
H        0.94980000      -3.79240000      -0.46220000
H        1.55280000      -3.44290000      -2.78720000
H       -0.10320000      -2.94620000      -3.14460000
H        1.25220000      -1.92440000      -3.63540000
H        1.08340000       0.13010000      -3.39100000
