16
Properties=species:S:1:pos:R:3 gdb_16195=T pbc="F F F"
O        0.07620000       0.04650000       0.00580000
C        0.02130000       1.25200000       0.01200000
C       -1.25390000       2.11240000       0.03190000
C       -0.72050000       3.52220000       0.03090000
C        0.61590000       3.55500000       0.01380000
C        1.19570000       2.19260000       0.00050000
C        2.46940000       1.77580000       0.72730000
C        2.45000000       1.78200000      -0.76250000
H       -1.87950000       1.87530000      -0.83830000
H       -1.85700000       1.86800000       0.91580000
H       -1.36410000       4.39310000       0.04280000
H        1.22410000       4.45220000       0.00960000
H        3.01430000       2.55510000       1.24860000
H        2.42610000       0.81520000       1.22940000
H        2.39360000       0.82560000      -1.27120000
H        2.98130000       2.56560000      -1.29130000
