12
Properties=species:S:1:pos:R:3 gdb_130758=T pbc="F F F"
O        0.21200000      -0.03090000      -0.00020000
C        0.03370000       1.13900000       0.00890000
O       -1.14970000       1.80000000       0.02850000
N       -0.90890000       3.20010000       0.03320000
C        0.36740000       3.29670000       0.01650000
C        1.19300000       4.54210000       0.01270000
C        0.41210000       5.76960000       0.02850000
C       -0.20690000       6.79660000       0.04100000
O        1.02450000       2.11240000       0.00100000
H        1.86700000       4.49810000       0.87900000
H        1.84550000       4.50680000      -0.87030000
H       -0.76620000       7.69970000       0.05170000
