20
Properties=species:S:1:pos:R:3 gdb_103431=T pbc="F F F"
C       -0.06940000       1.55740000       0.11260000
C        0.05100000       0.02880000       0.06640000
C        0.69090000      -0.49220000      -1.21470000
O        2.03140000      -0.05700000      -1.37730000
C        0.68940000      -2.00450000      -1.46260000
N       -0.73160000      -2.40800000      -1.60370000
C        0.00550000      -1.85660000      -2.77180000
C       -0.12320000      -0.33980000      -2.58680000
O       -1.42610000       0.17470000      -2.56890000
H        0.91220000       2.04550000       0.08080000
H       -0.66810000       1.92320000      -0.72600000
H       -0.55000000       1.88090000       1.04060000
H        0.64990000      -0.32800000       0.91380000
H       -0.94010000      -0.42350000       0.16540000
H        2.02850000       0.90580000      -1.40180000
H        1.45290000      -2.70750000      -1.15400000
H       -0.75840000      -3.42100000      -1.70220000
H        0.10230000      -2.42720000      -3.68710000
H        0.46630000       0.24210000      -3.29860000
H       -1.95550000      -0.48490000      -2.09950000
