19
Properties=species:S:1:pos:R:3 gdb_90570=T pbc="F F F"
O        0.13570000       1.40790000      -0.02400000
C        0.03270000       0.00440000       0.10770000
C        0.08650000      -0.64860000       1.53410000
C       -1.29330000      -1.26120000       1.26560000
C       -2.33010000      -0.20340000       1.00210000
C       -2.43800000       1.14270000       1.70540000
C       -2.96180000       0.99210000       3.11560000
O       -3.90310000       1.58720000       3.57480000
C       -1.36770000      -0.55630000      -0.10350000
H        1.06170000       1.65400000       0.06940000
H        0.74510000      -0.49780000      -0.55970000
H        0.88360000      -1.38960000       1.62530000
H        0.15520000       0.04570000       2.37710000
H       -1.56870000      -2.28140000       1.50210000
H       -3.30560000      -0.64880000       0.81240000
H       -1.45450000       1.62190000       1.75260000
H       -3.10050000       1.81750000       1.15540000
H       -2.39500000       0.25750000       3.73590000
H       -1.73130000      -0.93790000      -1.05020000
