18
Properties=species:S:1:pos:R:3 gdb_44852=T pbc="F F F"
O        0.01640000       0.03020000       0.06020000
C        0.00090000       1.23150000       0.02950000
C       -1.25370000       2.13940000       0.02100000
C       -0.63100000       3.55530000       0.03980000
C        0.61450000       3.33630000      -0.85670000
C        1.20690000       2.18860000      -0.00600000
C        1.18460000       2.79550000       1.40600000
N        1.35230000       4.26640000       1.45550000
C       -0.00560000       3.68720000       1.43260000
H       -1.82620000       1.95060000      -0.89380000
H       -1.90450000       1.91010000       0.87020000
H       -1.30090000       4.36110000      -0.26330000
H        0.34740000       3.01310000      -1.86660000
H        1.26770000       4.20460000      -0.90630000
H        2.13710000       1.72410000      -0.32910000
H        1.48090000       2.19220000       2.25640000
H        1.58150000       4.52820000       2.41140000
H       -0.64210000       3.77220000       2.30720000
