15
Properties=species:S:1:pos:R:3 gdb_16638=T pbc="F F F"
O       -0.09930000       1.46550000      -0.11610000
C       -0.02200000       0.06260000      -0.02270000
C       -1.36090000      -0.64090000      -0.06620000
C       -2.14090000      -0.53830000      -1.36330000
C       -1.21820000      -1.69510000      -1.12810000
O        0.06890000      -1.60270000      -1.73030000
C        0.72200000      -0.52240000      -1.22570000
N        1.77760000      -0.00370000      -1.68060000
H        0.72660000       1.74290000      -0.53800000
H        0.51290000      -0.23710000       0.89330000
H       -1.88610000      -0.83670000       0.85930000
H       -3.20720000      -0.72730000      -1.31530000
H       -1.84030000       0.21860000      -2.07990000
H       -1.55510000      -2.71940000      -1.04240000
H        2.10980000      -0.47800000      -2.52010000
