16
Properties=species:S:1:pos:R:3 gdb_103270=T pbc="F F F"
O       -0.06080000       1.31720000      -0.29850000
C        0.02840000      -0.06430000       0.05480000
C       -1.38440000      -0.59310000      -0.00390000
O       -2.26290000       0.15460000       0.77800000
C       -2.01740000      -1.22320000      -1.22140000
N       -1.09370000      -2.06220000      -1.98040000
C       -0.74830000      -2.83060000      -0.85180000
O        0.05540000      -3.70620000      -0.69860000
C       -1.74470000      -2.07600000       0.01860000
H        0.72690000       1.76640000       0.02020000
H        0.69250000      -0.61030000      -0.62570000
H        0.40840000      -0.18620000       1.07810000
H       -2.00860000       1.07600000       0.62840000
H       -2.97490000      -0.91690000      -1.61980000
H       -0.41800000      -1.72010000      -2.65450000
H       -2.42850000      -2.46340000       0.75950000
