12
Properties=species:S:1:pos:R:3 gdb_20609=T pbc="F F F"
C        0.08320000       1.52240000       0.05870000
C       -0.00810000       0.04180000       0.07540000
C       -1.07760000      -0.81610000       0.00120000
N       -0.55490000      -2.09910000       0.06560000
N        0.68860000      -2.07370000       0.16790000
O        1.10000000      -0.67830000       0.17880000
C       -2.45230000      -0.52890000      -0.11720000
C       -3.62280000      -0.26870000      -0.21830000
H        0.69540000       1.86210000      -0.78260000
H       -0.91530000       1.95310000      -0.03110000
H        0.54920000       1.89150000       0.97790000
H       -4.65770000      -0.04690000      -0.30750000
