22
Properties=species:S:1:pos:R:3 gdb_7588=T pbc="F F F"
C        0.11260000       1.43880000      -0.28460000
C        0.02930000      -0.03060000       0.15470000
C        0.67590000      -0.24180000       1.53270000
C       -1.40530000      -0.56450000       0.10660000
C       -2.42380000       0.10390000       1.01430000
C       -1.91150000      -1.06030000      -1.24060000
C       -1.59130000      -2.03930000      -0.13550000
O       -0.44490000      -2.83910000      -0.22230000
H        1.15660000       1.76350000      -0.34610000
H       -0.34530000       1.58860000      -1.26800000
H       -0.39310000       2.10310000       0.42480000
H        0.60550000      -0.62750000      -0.55980000
H        0.64350000      -1.29680000       1.81790000
H        1.72470000       0.07350000       1.51660000
H        0.17420000       0.34190000       2.31240000
H       -2.56600000       1.15790000       0.75240000
H       -3.39970000      -0.38500000       0.93110000
H       -2.12190000       0.05670000       2.06580000
H       -2.94970000      -0.89490000      -1.51110000
H       -1.21520000      -1.02450000      -2.07300000
H       -2.43120000      -2.51880000       0.36910000
H       -0.58450000      -3.48360000      -0.92350000
