18
Properties=species:S:1:pos:R:3 gdb_80512=T pbc="F F F"
C       -0.16500000       1.49250000      -0.07820000
N        0.10870000       0.06330000       0.05320000
C        1.38670000      -0.53920000      -0.19600000
C        2.57150000       0.31640000       0.28360000
C        1.99210000       0.26730000       1.72120000
O        1.79340000       1.52470000       2.32220000
C        0.76090000      -0.53380000       1.20450000
C        0.10360000      -1.54820000       1.96200000
C       -0.41630000      -2.38450000       2.65420000
H        0.62940000       2.15600000       0.27400000
H       -0.36960000       1.69890000      -1.13360000
H       -1.07180000       1.71660000       0.49120000
H        1.44420000      -1.37090000      -0.88970000
H        3.53550000      -0.18790000       0.20080000
H        2.65140000       1.31240000      -0.15730000
H        2.59790000      -0.38880000       2.36040000
H        1.34700000       1.38950000       3.16490000
H       -0.88740000      -3.13000000       3.24550000
