16
Properties=species:S:1:pos:R:3 gdb_123881=T pbc="F F F"
C       -0.13780000       1.52990000       0.02110000
C        1.39970000       1.52490000      -0.20380000
N        1.42460000       0.13430000       0.28090000
C       -0.03990000      -0.00190000       0.25990000
C        2.30480000      -0.81460000      -0.13320000
N        2.05840000      -2.12660000      -0.11890000
N        3.22600000      -2.58950000      -0.57780000
N        4.12250000      -1.66860000      -0.86170000
N        3.55830000      -0.51830000      -0.58740000
H       -0.44770000       2.08970000       0.90440000
H       -0.74200000       1.84080000      -0.83090000
H        1.70390000       1.61980000      -1.25300000
H        1.99370000       2.21820000       0.39810000
H       -0.46710000      -0.39040000       1.18890000
H       -0.40050000      -0.61420000      -0.57640000
H        3.40920000      -3.57350000      -0.69840000
