18
Properties=species:S:1:pos:R:3 gdb_64671=T pbc="F F F"
C       -0.01830000       1.62620000      -0.14570000
C       -0.02650000       0.10230000      -0.07580000
C       -1.44120000      -0.46270000       0.18850000
C       -1.96470000      -0.07860000       1.49410000
C       -2.35790000       0.24470000       2.58330000
C        0.73670000      -0.63330000      -1.22580000
C        1.68010000      -1.16130000      -0.11670000
O        2.63600000      -1.88680000      -0.06550000
N        0.98470000      -0.46010000       0.83720000
H        0.99610000       1.99480000      -0.32000000
H       -0.66060000       1.97840000      -0.95970000
H       -0.38970000       2.06060000       0.78730000
H       -2.11870000      -0.11790000      -0.60290000
H       -1.40340000      -1.55640000       0.11930000
H       -2.72700000       0.52380000       3.53930000
H        0.17440000      -1.41060000      -1.74680000
H        1.22030000       0.02150000      -1.95250000
H        1.05590000      -0.43470000       1.84440000
