19
Properties=species:S:1:pos:R:3 gdb_56799=T pbc="F F F"
O        1.59000000       1.22960000      -0.55350000
C        0.56130000       0.35160000      -0.07690000
C        0.08280000      -0.53780000      -1.14100000
C       -0.27980000      -1.25790000      -2.03260000
C        1.01250000      -0.38290000       1.16110000
C        1.08770000      -1.70060000       1.35480000
C        1.56610000      -2.04720000       2.74340000
C        2.10120000      -0.69300000       3.27920000
C        1.43200000       0.38970000       2.39630000
H        2.32310000       0.67000000      -0.83560000
H       -0.25360000       1.03600000       0.19730000
H       -0.61240000      -1.88560000      -2.82230000
H        0.79740000      -2.44610000       0.62370000
H        0.73280000      -2.42910000       3.35090000
H        2.32950000      -2.83350000       2.74840000
H        1.90720000      -0.55120000       4.34510000
H        3.18640000      -0.65330000       3.14110000
H        2.09990000       1.22280000       2.15850000
H        0.54950000       0.82930000       2.88440000
