18
Properties=species:S:1:pos:R:3 gdb_17915=T pbc="F F F"
O        0.14510000       1.36930000      -0.13600000
C        0.01620000      -0.02290000       0.00990000
C        0.38160000      -0.63280000       1.39700000
C       -0.72770000       0.00560000       2.29690000
C       -1.97510000       0.02270000       1.35800000
C       -1.42830000      -0.60800000       0.03460000
C       -1.09530000      -2.05330000       0.33570000
C       -0.02500000      -2.06800000       1.14130000
H       -0.36570000       1.80890000       0.55090000
H        0.61320000      -0.46370000      -0.79130000
H        1.40020000      -0.46740000       1.74910000
H       -0.89070000      -0.57370000       3.20770000
H       -0.44010000       1.01640000       2.60860000
H       -2.81530000      -0.54720000       1.75910000
H       -2.33630000       1.04240000       1.18120000
H       -2.04540000      -0.42010000      -0.84440000
H       -1.67470000      -2.90330000      -0.00320000
H        0.44600000      -2.93240000       1.59290000
