21
Properties=species:S:1:pos:R:3 gdb_39320=T pbc="F F F"
C        0.01660000       1.59380000       0.10240000
C        1.54630000       1.55680000      -0.17160000
C        1.39500000       0.07750000      -0.63380000
C        2.41080000      -0.94720000      -0.19410000
O        2.83360000      -0.90470000       1.17910000
C        2.02680000      -2.00900000       0.75230000
C        0.62100000      -2.06350000       1.31660000
C       -0.00300000      -0.66300000       1.40680000
C       -0.01210000       0.03920000       0.04560000
H       -0.31050000       2.05660000       1.03770000
H       -0.54180000       2.04890000      -0.72040000
H        1.94680000       2.26990000      -0.89580000
H        2.13430000       1.61910000       0.74670000
H        1.29640000       0.01910000      -1.72300000
H        3.23000000      -1.14440000      -0.88710000
H        2.56120000      -2.95930000       0.71070000
H        0.01650000      -2.72190000       0.67740000
H        0.64690000      -2.53110000       2.30830000
H       -1.02290000      -0.72910000       1.80120000
H        0.57890000      -0.07580000       2.12470000
H       -0.79970000      -0.39340000      -0.58040000
