20
Properties=species:S:1:pos:R:3 gdb_40246=T pbc="F F F"
C        0.11610000       1.49210000      -0.03930000
N        1.28080000       0.58980000       0.04300000
C       -0.08440000       0.02320000       0.01010000
C       -0.52790000      -0.67980000       1.27940000
C       -0.09860000      -2.15280000       1.23550000
C       -0.75200000      -2.91790000       0.06910000
C       -0.80720000      -2.11930000      -1.22310000
O       -1.84750000      -1.13150000      -1.31090000
C       -0.49410000      -0.67790000      -1.24890000
H       -0.06190000       2.08810000       0.85180000
H       -0.08130000       2.00870000      -0.97570000
H        1.72010000       0.50950000      -0.87240000
H       -0.07600000      -0.17430000       2.13720000
H       -1.61710000      -0.60180000       1.37460000
H        0.99240000      -2.18530000       1.12770000
H       -0.33660000      -2.65030000       2.18110000
H       -0.21120000      -3.85340000      -0.11210000
H       -1.78100000      -3.19830000       0.32550000
H       -0.67700000      -2.68530000      -2.14590000
H       -0.12320000      -0.22890000      -2.17420000
