27
Properties=species:S:1:pos:R:3 gdb_60158=T pbc="F F F"
C        0.00550000       1.59380000      -0.11820000
C        0.06260000       0.06740000       0.03600000
C        0.86010000      -0.31420000       1.29120000
C       -1.35810000      -0.52850000       0.02270000
C       -1.45300000      -2.05070000      -0.04130000
C       -1.29410000      -2.92510000       1.23920000
C       -2.44070000      -3.83750000       0.72320000
C       -3.45090000      -4.39340000       1.71460000
C       -2.86340000      -2.67990000      -0.22320000
H        1.01060000       2.02730000      -0.15640000
H       -0.52130000       1.88490000      -1.03320000
H       -0.52010000       2.05300000       0.72800000
H        0.59610000      -0.33700000      -0.83700000
H        0.98600000      -1.39580000       1.38530000
H        1.85850000       0.13590000       1.27040000
H        0.35610000       0.04330000       2.19750000
H       -1.91110000      -0.16840000       0.90330000
H       -1.88910000      -0.12220000      -0.85010000
H       -0.78380000      -2.42580000      -0.82610000
H       -0.32390000      -3.38830000       1.43770000
H       -1.60330000      -2.37240000       2.13420000
H       -2.01590000      -4.65620000       0.13020000
H       -3.88930000      -3.59140000       2.31990000
H       -4.27120000      -4.90920000       1.20220000
H       -2.98530000      -5.11050000       2.40050000
H       -3.63370000      -2.05380000       0.24330000
H       -3.18880000      -2.93030000      -1.23680000
