19
Properties=species:S:1:pos:R:3 gdb_37059=T pbc="F F F"
C        0.01590000       1.44000000      -0.01670000
C        1.33770000       0.71600000      -0.01810000
C        1.96790000       0.50410000       1.34380000
O        0.91130000       0.04120000       2.19040000
C       -0.01950000      -0.70680000       1.40110000
C        0.03680000      -0.07550000       0.02460000
C       -0.03600000      -0.78050000      -1.28630000
C        1.02330000      -0.49400000      -2.05130000
C        2.01970000       0.41910000      -1.35100000
H       -0.26000000       1.96330000       0.89390000
H       -0.31550000       1.90590000      -0.93830000
H        2.77660000      -0.24210000       1.26760000
H        2.37440000       1.40410000       1.81740000
H        0.26820000      -1.76900000       1.34010000
H       -0.98670000      -0.63800000       1.90960000
H       -0.86620000      -1.41250000      -1.58210000
H        1.16980000      -0.83950000      -3.06960000
H        2.22850000       1.32360000      -1.93570000
H        2.98720000      -0.08210000      -1.20700000
