23
Properties=species:S:1:pos:R:3 gdb_101145=T pbc="F F F"
C       -0.01930000       1.56950000       0.00510000
C       -0.00580000       0.04000000      -0.04790000
C        0.71560000      -0.51030000      -1.29160000
O        2.06670000      -0.03930000      -1.35610000
C        0.64830000      -2.01180000      -1.38210000
C       -0.03220000      -2.71870000      -2.28600000
C        0.06700000      -4.20780000      -2.06210000
C        1.23260000      -4.32380000      -1.04670000
C        1.33650000      -2.92750000      -0.38330000
H        0.99830000       1.96560000      -0.04080000
H       -0.57470000       1.98620000      -0.84250000
H       -0.49120000       1.93010000       0.92400000
H        0.48370000      -0.36090000       0.85130000
H       -1.02950000      -0.35330000      -0.03860000
H        0.24060000      -0.08710000      -2.18470000
H        2.51920000      -0.34240000      -0.56130000
H       -0.62790000      -2.28430000      -3.08280000
H       -0.87370000      -4.60380000      -1.65250000
H        0.25710000      -4.76840000      -2.98440000
H        1.08880000      -5.12780000      -0.32060000
H        2.16080000      -4.53650000      -1.58620000
H        2.37770000      -2.64390000      -0.18690000
H        0.82170000      -2.89960000       0.58780000
