20
Properties=species:S:1:pos:R:3 gdb_57365=T pbc="F F F"
C       -0.32290000       1.50760000      -0.10170000
C       -0.03270000       0.00030000      -0.00200000
C        0.91710000      -0.25840000       1.18560000
C       -1.34870000      -0.77630000       0.18850000
C        0.66440000      -0.50080000      -1.28040000
C        0.56480000       0.15640000      -2.60150000
O        1.73860000       0.28960000      -1.80220000
C        0.94750000      -1.93260000      -1.30300000
N        1.15270000      -3.07000000      -1.30830000
H        0.57410000       2.06630000      -0.38070000
H       -1.11290000       1.72540000      -0.82700000
H       -0.66450000       1.87620000       0.86990000
H        0.45140000       0.07340000       2.11840000
H        1.15280000      -1.32210000       1.28660000
H        1.85640000       0.28840000       1.05920000
H       -2.02970000      -0.61800000      -0.65460000
H       -1.17310000      -1.85140000       0.28700000
H       -1.85410000      -0.43410000       1.09670000
H        0.67880000      -0.44310000      -3.50210000
H       -0.03800000       1.05460000      -2.70180000
