22
Properties=species:S:1:pos:R:3 gdb_103430=T pbc="F F F"
C        0.70720000      -0.98080000       1.29740000
C       -0.05180000      -0.34920000       0.12580000
C        0.65130000      -0.53890000      -1.21370000
O        1.97550000      -0.02200000      -1.19500000
C        0.73460000      -1.96260000      -1.78450000
N       -0.66220000      -2.40650000      -2.00720000
C        0.01990000      -1.56400000      -3.02170000
C       -0.11930000      -0.11080000      -2.54540000
C       -1.51440000       0.49600000      -2.49780000
H        0.78020000      -2.06670000       1.17530000
H        1.72440000      -0.58590000       1.36470000
H        0.19760000      -0.78750000       2.24600000
H       -1.05480000      -0.77830000       0.05220000
H       -0.18430000       0.72860000       0.30280000
H        1.92120000       0.91440000      -0.97360000
H        1.54370000      -2.66690000      -1.63650000
H       -0.62050000      -3.37050000      -2.33560000
H        0.14420000      -1.91960000      -4.03770000
H        0.57180000       0.52790000      -3.10410000
H       -2.22080000      -0.18800000      -2.02140000
H       -1.52440000       1.44250000      -1.94610000
H       -1.87780000       0.70410000      -3.51060000
