17
Properties=species:S:1:pos:R:3 gdb_28218=T pbc="F F F"
C        0.01710000       1.46640000       0.02860000
C        0.00580000      -0.02440000      -0.03170000
N       -0.04460000      -0.75240000      -1.13300000
C       -0.03360000      -2.04890000      -0.68650000
C        0.02260000      -2.11660000       0.66490000
C        0.03450000      -3.52390000       1.14730000
O       -0.02120000      -4.27390000      -0.07870000
C       -0.06540000      -3.43050000      -1.25250000
N        0.04850000      -0.81540000       1.10180000
H        0.92460000       1.85110000       0.50880000
H       -0.02290000       1.85300000      -0.99030000
H       -0.84290000       1.86160000       0.58200000
H        0.94440000      -3.80030000       1.70230000
H       -0.82900000      -3.78990000       1.77650000
H       -0.97900000      -3.65600000      -1.82010000
H        0.79480000      -3.66640000      -1.89450000
H        0.09020000      -0.48290000       2.05040000
