18
Properties=species:S:1:pos:R:3 gdb_63320=T pbc="F F F"
C       -0.08730000       1.59710000      -0.00740000
C        0.02700000       0.07680000       0.04910000
C       -1.33610000      -0.60270000      -0.09560000
O        0.86580000      -0.36100000      -1.04960000
C        1.81540000      -1.25160000      -0.63960000
O        2.55680000      -1.80520000      -1.38960000
N        1.78440000      -1.41760000       0.78730000
C        2.19850000      -0.14990000       1.45380000
C        0.76830000      -0.46900000       1.27020000
H        0.89620000       2.06970000       0.04370000
H       -0.57110000       1.90870000      -0.93710000
H       -0.68940000       1.95990000       0.83120000
H       -1.78870000      -0.33850000      -1.05470000
H       -1.23330000      -1.69060000      -0.04920000
H       -2.00950000      -0.28340000       0.70620000
H        2.66430000      -0.29340000       2.42280000
H        2.65380000       0.61510000       0.83150000
H        0.17040000      -0.79700000       2.11470000
