21
Properties=species:S:1:pos:R:3 gdb_81848=T pbc="F F F"
C        0.00750000       1.51750000       0.08130000
C       -0.04000000       0.02680000      -0.00680000
C       -0.08140000      -0.74600000      -1.09560000
C       -0.03930000      -2.21130000      -0.77240000
C       -0.85490000      -3.18680000      -1.58730000
C        1.26760000      -2.63170000      -0.12490000
C        0.07590000      -2.25510000       0.73540000
C       -0.00590000      -0.82470000       1.26350000
O        1.02780000      -0.45160000       2.17080000
H        0.87770000       1.83990000       0.66410000
H        0.05210000       1.98440000      -0.90620000
H       -0.87410000       1.90850000       0.60630000
H       -0.10780000      -0.38350000      -2.11920000
H       -0.52210000      -3.20420000      -2.63180000
H       -0.76220000      -4.20410000      -1.19460000
H       -1.91730000      -2.91880000      -1.58170000
H        1.52970000      -3.68540000      -0.14350000
H        2.11600000      -1.95830000      -0.20680000
H       -0.39200000      -3.04750000       1.30790000
H       -0.92790000      -0.68130000       1.84320000
H        1.86240000      -0.73290000       1.77870000
