16
Properties=species:S:1:pos:R:3 gdb_15555=T pbc="F F F"
O        0.08030000       1.44990000       0.26810000
C        0.02950000       0.04760000       0.11820000
C        0.61750000      -0.56770000       1.40520000
C       -0.59960000      -0.87310000       2.24300000
C       -1.72430000      -0.82210000       1.53590000
C       -1.44830000      -0.49310000       0.07680000
C       -2.37540000       0.44460000      -0.54350000
C       -3.10510000       1.24560000      -1.06740000
H       -0.56590000       1.83560000      -0.33710000
H        0.57320000      -0.26640000      -0.78390000
H        1.18870000      -1.48060000       1.18860000
H        1.30660000       0.14180000       1.87350000
H       -0.53750000      -1.12870000       3.29480000
H       -2.72570000      -1.01690000       1.89940000
H       -1.46290000      -1.42260000      -0.51310000
H       -3.77300000       1.93380000      -1.52380000
