17
Properties=species:S:1:pos:R:3 gdb_127616=T pbc="F F F"
C       -0.01740000       1.41580000      -0.00710000
N       -0.00680000      -0.02950000       0.03890000
N       -0.03320000      -0.74320000      -1.12130000
C       -0.01570000      -2.02880000      -0.75610000
C        0.02190000      -2.15080000       0.64660000
C        0.02620000      -0.84680000       1.10860000
C        0.06530000      -0.79250000       2.60510000
C        0.08290000      -2.28450000       2.93030000
C        0.05790000      -3.03480000       1.81000000
H        0.88120000       1.82840000       0.46350000
H       -0.04280000       1.70780000      -1.05620000
H       -0.89930000       1.81700000       0.50340000
H       -0.03110000      -2.79060000      -1.52140000
H        0.95260000      -0.27920000       2.99900000
H       -0.80630000      -0.28990000       3.04530000
H        0.11190000      -2.65290000       3.94720000
H        0.06360000      -4.11660000       1.77720000
