13
Properties=species:S:1:pos:R:3 gdb_25493=T pbc="F F F"
N       -0.18230000       1.29650000       0.01170000
C       -0.01190000       0.05220000       0.00300000
O       -1.14200000      -0.73540000       0.00790000
C       -1.03990000      -2.07590000       0.00070000
N        0.15870000      -2.65670000      -0.00990000
C        0.11650000      -3.98860000      -0.01620000
N       -0.98180000      -4.73930000      -0.01260000
C       -2.11460000      -4.02830000      -0.00180000
N       -2.21470000      -2.70400000       0.00530000
H        0.72070000       1.76820000       0.00670000
H        0.91360000      -0.52080000      -0.00810000
H        1.07370000      -4.50490000      -0.02500000
H       -3.04750000      -4.58700000       0.00160000
