19
Properties=species:S:1:pos:R:3 gdb_127108=T pbc="F F F"
C       -0.23900000       1.35500000       0.00560000
N        0.13740000      -0.04350000      -0.00620000
C        0.00390000      -0.78020000       1.24210000
C       -0.00420000      -0.75130000      -1.17060000
N        0.08340000      -2.06640000      -1.29960000
C       -0.07150000      -2.26040000      -2.64670000
C       -0.03670000      -3.61460000      -3.27080000
N       -0.25650000      -1.16270000      -3.35420000
N       -0.21610000      -0.18850000      -2.38610000
H        0.27360000       1.89870000      -0.79560000
H       -1.32440000       1.51610000      -0.09910000
H        0.08050000       1.79880000       0.95120000
H       -1.04520000      -0.88120000       1.55970000
H        0.41950000      -1.77780000       1.10640000
H        0.55750000      -0.25810000       2.02820000
H       -0.81630000      -4.25620000      -2.84750000
H       -0.18780000      -3.53510000      -4.34860000
H        0.92380000      -4.10440000      -3.08070000
H       -0.34900000       0.77270000      -2.64310000
