21
Properties=species:S:1:pos:R:3 gdb_119670=T pbc="F F F"
O       -0.12570000       1.44130000      -0.02190000
C        0.02560000       0.02950000      -0.03860000
C       -1.36400000      -0.58880000       0.07690000
C       -1.34550000      -2.09520000       0.07890000
C       -0.67880000      -3.05820000       1.09100000
C       -1.35520000      -3.99010000       0.07120000
C       -2.59200000      -3.04350000      -0.09320000
C       -2.48050000      -3.04280000      -1.63020000
C       -1.02070000      -3.05180000      -1.13680000
H        0.74760000       1.83810000      -0.08750000
H        0.50570000      -0.31000000      -0.97050000
H        0.65690000      -0.31330000       0.79680000
H       -1.83180000      -0.22090000       0.99880000
H       -1.97820000      -0.22080000      -0.75430000
H        0.41650000      -3.07060000       1.12020000
H       -1.08690000      -3.05860000       2.10810000
H       -1.37830000      -5.08050000       0.04180000
H       -3.48410000      -3.03990000       0.53660000
H       -2.82910000      -3.94300000      -2.14700000
H       -2.82480000      -2.14600000      -2.15530000
H       -0.09540000      -3.06240000      -1.71680000
