18
Properties=species:S:1:pos:R:3 gdb_26250=T pbc="F F F"
C        0.13290000       0.84150000       1.03690000
N       -0.10550000       0.15380000      -0.23100000
C        1.08670000      -0.50070000      -0.76830000
C       -1.27050000      -0.58200000      -0.30100000
C       -2.43310000      -0.46130000      -0.97550000
N       -3.30350000      -1.50200000      -0.66180000
C       -2.62470000      -2.21710000       0.18480000
N       -3.00040000      -3.41100000       0.75220000
O       -1.39510000      -1.76310000       0.48010000
H        0.92480000       1.58570000       0.90100000
H       -0.77930000       1.35780000       1.34450000
H        0.43990000       0.15960000       1.84690000
H        1.47440000      -1.29690000      -0.11220000
H        0.85070000      -0.93720000      -1.74130000
H        1.87760000       0.24480000      -0.90360000
H       -2.70580000       0.31730000      -1.67030000
H       -3.99700000      -3.56490000       0.70470000
H       -2.60940000      -3.58610000       1.66630000
