19
Properties=species:S:1:pos:R:3 gdb_72122=T pbc="F F F"
C       -0.00780000       1.53740000      -0.00220000
C       -0.02020000       0.02870000      -0.03560000
C        0.23170000      -0.81180000      -1.31100000
C       -0.34670000      -1.93370000      -0.43020000
O        0.67080000      -2.11100000       0.53990000
C        0.73160000      -0.74400000       1.09450000
C       -0.24880000      -0.77130000       2.24390000
C       -1.47130000      -0.88690000       1.70350000
C       -1.32060000      -0.82060000       0.22320000
H        1.00130000       1.92740000      -0.17850000
H       -0.66390000       1.95280000      -0.77390000
H       -0.34730000       1.91070000       0.96940000
H       -0.42940000      -0.50740000      -2.12680000
H        1.25620000      -0.94760000      -1.66580000
H       -0.70620000      -2.89430000      -0.79480000
H        1.77000000      -0.48400000       1.29920000
H        0.02470000      -0.85860000       3.28740000
H       -2.40010000      -1.07300000       2.22900000
H       -2.18900000      -0.58610000      -0.39160000
