16
Properties=species:S:1:pos:R:3 gdb_11766=T pbc="F F F"
C       -0.02250000      -1.18300000      -0.05900000
C       -0.00690000       0.01800000      -0.02640000
C        0.04520000       1.45440000       0.05300000
C       -0.26230000       2.26740000       1.34670000
C        0.40990000       3.39370000       0.50320000
C        1.36030000       2.28530000      -0.04460000
C       -0.58600000       3.48900000      -0.65710000
O       -0.80550000       2.08560000      -0.93110000
H       -0.04230000      -2.24420000      -0.09470000
H       -1.31550000       2.37030000       1.61690000
H        0.33860000       1.95230000       2.20010000
H        0.77540000       4.32080000       0.94130000
H        2.11600000       1.97190000       0.67610000
H        1.78660000       2.40440000      -1.04300000
H       -1.53260000       3.96890000      -0.38290000
H       -0.17690000       3.98390000      -1.54550000
