15
Properties=species:S:1:pos:R:3 gdb_31430=T pbc="F F F"
C       -0.02850000       1.39260000       0.03460000
O        0.01370000      -0.03900000      -0.02110000
C        0.61810000      -0.58830000      -1.07810000
N        1.13630000       0.17310000      -2.00010000
C        1.76080000      -0.39140000      -3.09210000
O        2.27340000       0.22170000      -4.00230000
N        1.78550000      -1.81230000      -3.11700000
C        1.24270000      -2.59130000      -2.15130000
C        0.63230000      -2.02050000      -1.08440000
H        0.98130000       1.80920000       0.04750000
H       -0.56080000       1.79780000      -0.82900000
H       -0.55590000       1.62810000       0.95940000
H        2.24480000      -2.21440000      -3.92040000
H        1.32720000      -3.66340000      -2.28620000
H        0.18370000      -2.59280000      -0.28720000
