11
Properties=species:S:1:pos:R:3 gdb_130617=T pbc="F F F"
O       -0.02810000      -0.02050000      -0.26330000
C       -0.02280000       1.17370000      -0.04790000
C       -1.22540000       1.96130000       0.22140000
N       -1.24170000       3.22700000       0.45220000
O       -0.04090000       3.89670000       0.44690000
N        1.16510000       3.29610000       0.21120000
C        1.19610000       2.01550000      -0.02380000
C        2.46580000       1.42660000      -0.26410000
C        3.52080000       0.88940000      -0.47250000
H       -2.19290000       1.46720000       0.23390000
H        4.45610000       0.41930000      -0.65600000
