18
Properties=species:S:1:pos:R:3 gdb_98332=T pbc="F F F"
C        0.64090000       0.61800000       0.00340000
N       -0.01750000      -0.67550000       0.04330000
C       -1.35350000      -0.81870000      -0.07620000
O       -2.14260000       0.11330000      -0.18100000
C       -1.90840000      -2.26010000      -0.05660000
O       -3.30250000      -2.18920000      -0.11870000
C       -1.39620000      -3.12180000      -1.24470000
C       -0.00360000      -3.53520000      -1.13070000
C        1.14530000      -3.86850000      -0.99740000
H        1.24480000       0.73100000      -0.90400000
H       -0.13230000       1.38620000       0.01200000
H        1.28980000       0.74930000       0.87510000
H        0.54830000      -1.51210000       0.04070000
H       -1.58920000      -2.74560000       0.87840000
H       -3.49080000      -1.23440000      -0.18280000
H       -2.04090000      -4.00670000      -1.28110000
H       -1.56200000      -2.57510000      -2.18050000
H        2.15370000      -4.19000000      -0.90620000
