26
Properties=species:S:1:pos:R:3 gdb_118843=T pbc="F F F"
C       -0.31510000       1.58350000      -0.00230000
C       -0.29420000       0.05640000      -0.11370000
C        0.85440000      -0.45620000      -0.99670000
C        0.87140000      -1.96910000      -1.17670000
C        1.09220000      -2.76900000       0.09500000
C        0.04570000      -2.57140000      -2.26950000
N        1.50330000      -2.58270000      -2.35400000
C        2.13890000      -1.78330000      -3.39530000
C        2.38330000      -2.64320000      -4.63440000
H        0.61680000       1.96190000       0.43260000
H       -0.43300000       2.05200000      -0.98590000
H       -1.13990000       1.92590000       0.63040000
H       -0.21560000      -0.37790000       0.88950000
H       -1.24760000      -0.29790000      -0.52600000
H        0.78360000       0.03560000      -1.97210000
H        1.81170000      -0.13720000      -0.55960000
H        0.26230000      -2.64790000       0.79890000
H        1.19140000      -3.83010000      -0.14420000
H        2.01100000      -2.44960000       0.60120000
H       -0.44000000      -3.53600000      -2.13840000
H       -0.49310000      -1.88240000      -2.92160000
H        1.55020000      -0.89660000      -3.68360000
H        3.09530000      -1.41700000      -3.00230000
H        2.99620000      -3.51310000      -4.38310000
H        1.43640000      -3.00640000      -5.04740000
H        2.89330000      -2.06620000      -5.41240000
