16
Properties=species:S:1:pos:R:3 gdb_6352=T pbc="F F F"
C       -1.76070000       1.74280000       0.73030000
O       -2.13240000       0.37530000       0.90920000
C       -1.71050000      -0.46910000      -0.05880000
N       -1.03530000      -0.10450000      -1.06030000
N       -2.16590000      -1.75330000       0.28540000
C       -1.95440000      -2.91240000      -0.43470000
C       -2.57410000      -4.14570000       0.19850000
O       -1.33120000      -2.94250000      -1.47660000
H       -2.17610000       2.27420000       1.58740000
H       -0.67300000       1.84700000       0.70140000
H       -2.17100000       2.13560000      -0.20360000
H       -0.83250000      -0.90790000      -1.65250000
H       -2.69370000      -1.80290000       1.14340000
H       -2.36140000      -5.00640000      -0.43410000
H       -2.16160000      -4.31860000       1.19800000
H       -3.65810000      -4.02810000       0.30000000
