21
Properties=species:S:1:pos:R:3 gdb_103931=T pbc="F F F"
C        0.12080000       1.52570000      -0.06690000
C        0.01210000       0.00420000       0.08090000
C       -1.42090000      -0.51720000       0.03380000
O       -2.21020000      -0.05300000       1.11560000
C       -2.19020000      -0.43850000      -1.34830000
C       -2.33170000      -1.97020000      -1.30230000
C       -3.39320000      -2.82780000      -1.90770000
O       -0.98600000      -2.48590000      -1.25030000
C       -1.59490000      -2.04670000      -0.03100000
H        1.16670000       1.84550000      -0.05120000
H       -0.31710000       1.87140000      -1.00980000
H       -0.38380000       2.05130000       0.75250000
H        0.57470000      -0.49170000      -0.71600000
H        0.45670000      -0.30620000       1.03470000
H       -2.25970000       0.90690000       1.05980000
H       -3.14070000       0.08650000      -1.22730000
H       -1.64760000      -0.04990000      -2.21430000
H       -3.33100000      -2.81120000      -3.00180000
H       -3.28170000      -3.86350000      -1.57580000
H       -4.38780000      -2.47100000      -1.62160000
H       -1.64940000      -2.74370000       0.79850000
