19
Properties=species:S:1:pos:R:3 gdb_106963=T pbc="F F F"
C        0.04810000       1.56720000       0.03530000
C        0.01750000       0.04930000       0.00040000
O       -1.30090000      -0.46770000       0.00240000
C        0.94880000      -0.67750000      -1.05260000
C        1.63690000      -1.38750000       0.12160000
C        2.35440000      -2.69770000       0.16200000
O        3.59160000      -2.64310000      -0.53230000
O        2.17190000      -0.33600000       0.96190000
C        0.79550000      -0.69250000       1.10810000
H        1.07430000       1.92260000       0.15550000
H       -0.34850000       1.98530000      -0.89840000
H       -0.56010000       1.94220000       0.86430000
H       -1.77380000      -0.08060000      -0.74210000
H        0.35960000      -1.35290000      -1.67690000
H        1.60180000      -0.05640000      -1.67000000
H        2.48790000      -3.00000000       1.21160000
H        1.75800000      -3.46710000      -0.33900000
H        4.11850000      -1.95600000      -0.10920000
H        0.43940000      -0.98430000       2.09030000
