20
Properties=species:S:1:pos:R:3 gdb_67292=T pbc="F F F"
C       -0.05150000       1.49310000       0.02770000
C       -0.05420000      -0.00240000      -0.06340000
C        0.85610000      -0.94940000      -0.92550000
C        1.91870000      -0.90670000       0.16360000
N        0.65420000      -0.90010000       1.01780000
C       -0.01520000      -1.86140000      -0.01000000
C       -1.22900000      -0.96650000      -0.11520000
C       -2.55440000      -0.97320000       0.56370000
C       -2.45970000      -1.01550000      -0.95750000
H        0.96740000       1.88680000       0.09930000
H       -0.52190000       1.93440000      -0.85780000
H       -0.60530000       1.82370000       0.91230000
H        0.94270000      -0.98130000      -2.01750000
H        2.53670000      -1.79800000       0.31440000
H        2.52840000      -0.00340000       0.26850000
H        0.05860000      -2.94240000       0.12040000
H       -2.86780000      -1.87540000       1.07900000
H       -2.90580000      -0.05480000       1.02340000
H       -2.74940000      -0.12550000      -1.50780000
H       -2.71160000      -1.94590000      -1.45670000
