20
Properties=species:S:1:pos:R:3 gdb_95790=T pbc="F F F"
C       -0.04520000       1.45900000      -0.00450000
N        0.04470000       0.01090000       0.10680000
C       -1.23450000      -0.70130000       0.07990000
C       -1.11160000      -2.19610000       0.37490000
C        0.05620000      -2.80830000      -0.39800000
C        1.33600000      -2.11690000       0.05820000
O        2.45570000      -2.57660000      -0.64960000
C        1.25380000      -0.58790000      -0.07900000
O        2.28670000       0.03160000      -0.30810000
H        0.96170000       1.87190000       0.01690000
H       -0.53160000       1.75300000      -0.94420000
H       -0.63290000       1.86240000       0.82740000
H       -1.90270000      -0.22460000       0.80740000
H       -1.69590000      -0.55420000      -0.90980000
H       -0.95750000      -2.34820000       1.45020000
H       -2.05940000      -2.67900000       0.11890000
H        0.13380000      -3.88530000      -0.22260000
H       -0.06780000      -2.66300000      -1.47820000
H        1.45830000      -2.30880000       1.14170000
H        3.02930000      -1.79670000      -0.72830000
