20
Properties=species:S:1:pos:R:3 gdb_116600=T pbc="F F F"
C        0.16700000       1.76840000      -0.18330000
C        0.68740000       0.35910000       0.08420000
N        1.17200000      -0.24810000      -1.15310000
C        1.79230000      -1.33930000      -1.08720000
C        2.35400000      -2.12590000      -2.25140000
C        3.38880000      -3.03630000      -1.59080000
O        4.61260000      -2.32040000      -1.55530000
C        2.77680000      -3.21670000      -0.19060000
O        2.05650000      -2.01240000       0.08360000
H        0.96270000       2.40350000      -0.58460000
H       -0.64390000       1.74670000      -0.91760000
H       -0.20970000       2.22690000       0.73690000
H        1.48350000       0.38410000       0.84180000
H       -0.11440000      -0.26070000       0.51160000
H        1.55780000      -2.71700000      -2.71680000
H        2.79210000      -1.47700000      -3.00880000
H        3.50510000      -3.99950000      -2.10500000
H        5.25730000      -2.84090000      -1.06550000
H        2.08790000      -4.07170000      -0.16280000
H        3.53480000      -3.35000000       0.58750000
