19
Properties=species:S:1:pos:R:3 gdb_107762=T pbc="F F F"
C       -0.01060000       1.35280000      -0.02420000
O       -0.04060000      -0.06530000      -0.13030000
C        0.67940000      -0.59790000      -1.16300000
C        2.20270000      -0.31130000      -1.31590000
C        2.36110000      -1.08130000      -2.61610000
C        1.35120000      -2.23760000      -2.58160000
C        0.61070000      -2.13660000      -1.25740000
C        1.01240000      -0.94370000      -3.28810000
O        0.16440000      -0.18340000      -2.45580000
H        0.98400000       1.71510000       0.26580000
H       -0.30790000       1.82610000      -0.96530000
H       -0.72440000       1.61690000       0.75830000
H        2.41900000       0.75400000      -1.42880000
H        2.77730000      -0.71790000      -0.47960000
H        3.28890000      -1.13480000      -3.16960000
H        1.51530000      -3.16880000      -3.10620000
H        1.11920000      -2.62200000      -0.42090000
H       -0.42590000      -2.47830000      -1.30970000
H        0.84090000      -0.82240000      -4.34820000
