19
Properties=species:S:1:pos:R:3 gdb_29858=T pbc="F F F"
C        0.13560000       1.41710000       0.02830000
N       -0.05390000      -0.01420000      -0.00380000
C       -0.00070000      -0.79430000      -1.13730000
C       -0.02790000      -2.10760000      -0.73910000
C       -0.09980000      -3.52160000      -1.24250000
C        0.20940000      -4.31520000       0.06280000
N       -0.23540000      -3.43230000       1.17220000
C       -0.10270000      -2.12100000       0.67460000
C       -0.11310000      -0.82520000       1.12670000
H        1.17930000       1.69560000       0.22530000
H       -0.16090000       1.84410000      -0.93290000
H       -0.49270000       1.86110000       0.80640000
H        0.06140000      -0.33320000      -2.11070000
H       -1.10330000      -3.76940000      -1.61350000
H        0.60970000      -3.77040000      -2.03720000
H       -0.31030000      -5.27660000       0.10600000
H        1.29150000      -4.50980000       0.11840000
H        0.25110000      -3.61450000       2.04070000
H       -0.14710000      -0.39050000       2.11200000
