14
Properties=species:S:1:pos:R:3 gdb_16938=T pbc="F F F"
O       -0.03570000       0.01110000      -0.00110000
C        0.00570000       1.20320000      -0.01440000
O       -1.11420000       2.00350000      -0.01800000
C       -0.61940000       3.36370000       0.02320000
C        0.61570000       3.29560000      -0.87770000
C        1.19400000       2.16630000       0.00340000
C        1.11980000       2.86370000       1.38620000
O       -0.10780000       3.62220000       1.30700000
H       -1.44070000       4.04070000      -0.19560000
H        0.39170000       2.99110000      -1.90090000
H        1.20030000       4.21740000      -0.86660000
H        2.14640000       1.70940000      -0.25010000
H        1.06450000       2.16370000       2.22450000
H        1.96410000       3.54540000       1.53870000
