13
Properties=species:S:1:pos:R:3 gdb_3559=T pbc="F F F"
O        0.09050000       1.40000000      -0.00440000
C       -0.00620000       0.01000000      -0.00230000
C       -1.37830000      -0.67500000      -0.07300000
C       -1.67460000      -0.73950000      -1.57300000
O       -0.61550000      -0.05760000      -2.26340000
C        0.29390000      -0.72950000      -1.33590000
C       -0.80410000      -1.78190000      -0.96400000
H       -0.27680000       1.67900000      -0.85480000
H        0.59280000      -0.38060000       0.82370000
H       -2.14560000      -0.74770000       0.68630000
H       -2.65850000      -0.77050000      -2.02020000
H        1.29310000      -0.87670000      -1.73870000
H       -0.83760000      -2.85960000      -0.91210000
