19
Properties=species:S:1:pos:R:3 gdb_121665=T pbc="F F F"
O        0.16850000       1.36470000      -0.31890000
C       -0.03080000      -0.00590000       0.01330000
C       -1.51160000      -0.33240000       0.18990000
N       -2.25300000       0.07480000      -0.98690000
C       -3.21730000      -0.68890000      -1.56120000
O       -3.58900000      -1.76230000      -1.10480000
C       -3.82000000      -0.12490000      -2.81660000
C       -4.03790000      -1.08850000      -3.93600000
N       -5.16990000      -0.59390000      -3.15710000
H       -0.01970000       1.89150000       0.46510000
H        0.37760000      -0.57460000      -0.82780000
H        0.52600000      -0.28950000       0.91740000
H       -1.66870000      -1.40460000       0.33200000
H       -1.89780000       0.17650000       1.08670000
H       -1.96210000       0.93710000      -1.42150000
H       -3.62050000       0.91990000      -3.04130000
H       -3.98210000      -0.72940000      -4.95960000
H       -3.70420000      -2.10870000      -3.77080000
H       -5.40620000      -1.30300000      -2.46120000
