20
Properties=species:S:1:pos:R:3 gdb_83310=T pbc="F F F"
C       -0.00590000       1.51790000       0.27660000
C        0.07080000       0.03200000       0.00960000
C        0.53560000      -0.58040000      -1.30000000
C        1.32370000       0.26170000      -2.30170000
C        2.64070000       0.66710000      -1.59140000
N        2.58600000       0.01440000      -0.27790000
C        3.58080000       0.16380000       0.62980000
O        4.59650000       0.80380000       0.43710000
C        1.37700000      -0.73620000      -0.06290000
H       -0.92180000       1.94410000      -0.14680000
H       -0.01570000       1.71530000       1.35380000
H        0.84070000       2.06490000      -0.14430000
H       -0.73050000      -0.53590000       0.47810000
H       -0.02600000      -1.42190000      -1.68870000
H        1.53780000      -0.33950000      -3.18920000
H        0.76720000       1.14090000      -2.64000000
H        3.53250000       0.33680000      -2.13410000
H        2.73530000       1.75010000      -1.46450000
H        3.37190000      -0.37750000       1.57420000
H        1.49490000      -1.67940000       0.45920000
