14
Properties=species:S:1:pos:R:3 gdb_4400=T pbc="F F F"
N        0.04460000       1.40000000       0.16020000
C       -0.04740000       0.02260000       0.04990000
C       -1.22810000      -0.68010000       0.02540000
C       -1.16130000      -2.09350000      -0.01170000
C        0.02190000      -2.77640000      -0.03810000
C        1.28260000      -2.07650000      -0.01660000
O        2.40980000      -2.54410000      -0.02620000
N        1.12880000      -0.66360000       0.02760000
H        0.82260000       1.82710000      -0.32350000
H       -0.82070000       1.88530000      -0.02550000
H       -2.17370000      -0.15510000       0.03010000
H       -2.09430000      -2.64980000      -0.02780000
H        0.06710000      -3.85690000      -0.06910000
H        2.00720000      -0.16730000       0.09860000
