17
Properties=species:S:1:pos:R:3 gdb_29626=T pbc="F F F"
C       -0.04310000       1.46590000      -0.03580000
N       -0.01590000       0.00600000       0.02980000
C       -0.11040000      -0.66970000      -1.22330000
N       -0.20850000       0.05010000      -2.27310000
N       -0.08650000      -2.05490000      -1.18430000
C        0.01850000      -2.61830000      -0.02280000
N        0.11140000      -2.01540000       1.19990000
C        0.09030000      -0.70490000       1.17960000
C        0.18960000       0.01050000       2.49820000
H        0.03410000       1.89220000       0.96070000
H        0.78100000       1.81390000      -0.66240000
H       -0.96980000       1.78800000      -0.51580000
H       -0.26640000      -0.57170000      -3.07780000
H        0.03670000      -3.70700000       0.00110000
H        0.26550000      -0.74570000       3.27780000
H        1.07080000       0.65850000       2.54050000
H       -0.69090000       0.63280000       2.68700000
