19
Properties=species:S:1:pos:R:3 gdb_41855=T pbc="F F F"
C        0.04730000       1.42030000      -0.09270000
O        1.36970000       1.90870000      -0.06650000
C        2.15100000       1.43940000       1.04040000
C        1.66000000       1.97230000       2.40260000
C        0.54340000       1.15620000       3.00490000
C        0.08800000       0.02990000       2.45500000
C        0.66460000      -0.49460000       1.15810000
C        2.13650000      -0.09190000       1.02850000
O       -0.04120000       0.02160000       0.00750000
H       -0.54860000       1.89910000       0.70020000
H       -0.35940000       1.68510000      -1.07160000
H        3.15240000       1.83130000       0.84370000
H        2.50870000       1.99580000       3.10180000
H        1.34690000       3.01720000       2.28350000
H        0.11210000       1.52730000       3.93240000
H       -0.73830000      -0.51440000       2.90220000
H        0.53720000      -1.57760000       1.09010000
H        2.54130000      -0.46120000       0.08260000
H        2.72700000      -0.50010000       1.85520000
