19
Properties=species:S:1:pos:R:3 gdb_71547=T pbc="F F F"
C       -0.06480000       1.46770000      -0.02200000
C        0.01350000      -0.03320000      -0.06580000
C        0.58090000      -0.93980000      -1.17900000
C        0.08580000      -1.92560000      -0.10840000
C        0.53310000      -0.99550000       1.06880000
C       -0.83970000      -1.06860000       1.76570000
C       -1.17580000      -1.05110000       0.26690000
C       -2.49850000      -1.08900000      -0.39580000
O       -3.55470000      -1.08630000       0.19140000
H        0.93840000       1.90590000      -0.07260000
H       -0.64240000       1.86070000      -0.86550000
H       -0.53780000       1.81690000       0.90190000
H        0.06320000      -0.93640000      -2.14340000
H        1.66470000      -0.89340000      -1.33170000
H        0.10200000      -3.01620000      -0.10740000
H        1.53130000      -0.96930000       1.51000000
H       -1.07130000      -1.99280000       2.30240000
H       -1.15170000      -0.19940000       2.35120000
H       -2.46470000      -1.11690000      -1.51000000
