16
Properties=species:S:1:pos:R:3 gdb_51442=T pbc="F F F"
O       -0.69280000       0.63120000       0.67280000
C        0.12020000       0.89330000      -0.17510000
C        1.28670000       1.84510000       0.03760000
C        1.37220000       2.90230000      -1.06780000
C        2.58050000       3.83670000      -1.18870000
C        3.79180000       3.13300000      -1.62840000
N        2.77730000       3.49080000      -2.67070000
C        1.72960000       2.49430000      -2.51420000
O        1.30630000       1.71140000      -3.30540000
H        0.06920000       0.44340000      -1.18940000
H        1.18060000       2.30900000       1.02270000
H        2.20370000       1.24030000       0.04530000
H        0.44380000       3.48480000      -1.10310000
H        2.58800000       4.87470000      -0.88000000
H        4.70700000       3.70480000      -1.73790000
H        3.94400000       2.08280000      -1.39270000
