16
Properties=species:S:1:pos:R:3 gdb_48936=T pbc="F F F"
O       -0.17460000       0.08380000       0.35210000
C       -0.00010000       1.21150000      -0.04360000
C        1.31030000       1.88640000      -0.05570000
C        2.50870000       1.51380000       0.79360000
C        2.88160000       3.03440000       0.74700000
C        3.77690000       3.25580000      -0.44570000
C        3.03550000       3.12210000      -1.54660000
C        1.61960000       2.93980000      -1.12700000
N        1.45900000       3.37200000       0.26020000
H       -0.83620000       1.83000000      -0.44210000
H        2.17270000       1.21000000       1.78630000
H        3.23630000       0.79480000       0.41060000
H        3.15070000       3.52190000       1.68190000
H        4.85380000       3.34320000      -0.38400000
H        3.36500000       3.11420000      -2.57650000
H        0.79950000       3.19110000      -1.79290000
