11
Properties=species:S:1:pos:R:3 gdb_132131=T pbc="F F F"
F        0.07940000       0.05420000       0.00230000
C       -0.05470000       1.35620000       0.01110000
C       -1.25410000       1.98520000       0.03090000
F       -2.39650000       1.29660000       0.04290000
C       -1.25350000       3.40080000       0.03840000
C       -0.08840000       4.10120000       0.02620000
C        1.19290000       3.44210000       0.00520000
O        2.29600000       3.89790000      -0.00760000
O        1.09460000       1.99500000      -0.00120000
H       -2.21240000       3.90810000       0.05430000
H       -0.06410000       5.18230000       0.03170000
