21
Properties=species:S:1:pos:R:3 gdb_46320=T pbc="F F F"
O       -0.00350000       0.23570000      -0.78460000
C       -0.01380000       1.28620000      -0.20760000
C       -1.05900000       2.03990000       0.62900000
C       -0.16940000       3.31060000       0.46730000
C        0.99020000       2.45290000      -0.13630000
C        2.16180000       2.13540000       0.83090000
C        3.28720000       1.66270000      -0.09840000
C        3.18930000       2.64480000      -1.27620000
C        1.66790000       2.84450000      -1.47720000
H       -2.06910000       2.06100000       0.21240000
H       -1.11750000       1.66580000       1.65600000
H       -0.58340000       4.02190000      -0.25140000
H        0.07320000       3.84270000       1.38950000
H        2.45690000       3.06040000       1.34310000
H        1.89680000       1.40660000       1.60360000
H        4.26830000       1.65790000       0.38520000
H        3.07640000       0.64270000      -0.44020000
H        3.66200000       3.59530000      -1.00180000
H        3.68920000       2.28540000      -2.17960000
H        1.29700000       2.18820000      -2.27140000
H        1.41890000       3.87060000      -1.76310000
