20
Properties=species:S:1:pos:R:3 gdb_107911=T pbc="F F F"
C        0.00910000       1.50530000       0.00430000
C        0.04350000      -0.01170000      -0.03600000
C        0.85220000      -0.61690000      -1.17590000
C        2.04370000      -0.67070000      -0.26640000
N        1.07690000      -0.56900000       0.93630000
C        0.85570000      -2.06270000       0.78320000
C        1.38160000      -1.96640000      -0.64050000
C        1.87190000      -3.05200000      -1.54040000
O        2.83980000      -3.81800000      -0.83170000
H        1.00840000       1.92430000      -0.15010000
H       -0.65150000       1.90000000      -0.77540000
H       -0.35930000       1.84850000       0.97560000
H       -0.96100000      -0.41730000       0.14180000
H        0.82370000      -0.40250000      -2.23820000
H        3.06050000      -0.30800000      -0.30560000
H        1.54360000      -2.60540000       1.43450000
H       -0.17400000      -2.39210000       0.96900000
H        1.02510000      -3.68390000      -1.85530000
H        2.30260000      -2.60980000      -2.45410000
H        3.06080000      -4.58670000      -1.36590000
