19
Properties=species:S:1:pos:R:3 gdb_90708=T pbc="F F F"
O        0.69380000       0.85480000      -0.44800000
C        0.15120000      -0.24040000       0.24320000
C       -0.04500000      -0.12630000       1.78340000
C       -1.50340000      -0.64020000       1.64660000
C       -1.38670000      -0.55020000       0.09490000
C       -1.75500000      -1.91660000      -0.40080000
C       -1.98170000      -2.76820000       0.60140000
C       -1.78130000      -2.14560000       1.96790000
O       -0.76400000      -2.81130000       2.71530000
H        0.22130000       1.64780000      -0.17260000
H        0.76210000      -1.09950000      -0.04980000
H        0.62130000      -0.71010000       2.42120000
H       -0.00270000       0.91780000       2.10970000
H       -2.25710000      -0.00570000       2.11470000
H       -1.92620000       0.26810000      -0.39220000
H       -1.79100000      -2.17130000      -1.45520000
H       -2.23360000      -3.81820000       0.49590000
H       -2.67090000      -2.24330000       2.59950000
H       -0.02980000      -2.98580000       2.11600000
