19
Properties=species:S:1:pos:R:3 gdb_57789=T pbc="F F F"
C       -0.04980000       1.63440000       0.32090000
C       -0.00930000       0.16000000      -0.10570000
O        0.87000000      -0.60250000       0.71840000
C       -1.35410000      -0.42410000      -0.15390000
C       -2.45790000      -0.90970000      -0.15950000
C       -3.78440000      -1.46350000      -0.16210000
O       -4.13240000      -2.36300000      -1.23170000
C       -4.04610000      -2.90240000       0.08410000
C       -2.95470000      -3.90270000       0.35320000
H        0.96820000       2.03120000       0.34900000
H       -0.64710000       2.22640000      -0.37840000
H       -0.49460000       1.73340000       1.31650000
H        0.43430000       0.09600000      -1.10680000
H        0.45640000      -0.68090000       1.58530000
H       -4.57810000      -0.75970000       0.08920000
H       -5.01790000      -3.13890000       0.52350000
H       -1.99940000      -3.55360000      -0.04390000
H       -2.84970000      -4.06910000       1.43060000
H       -3.19980000      -4.86240000      -0.11310000
