12
Properties=species:S:1:pos:R:3 gdb_5360=T pbc="F F F"
O       -0.08700000      -0.01890000      -0.00120000
C        0.00040000       1.18070000       0.00770000
C        1.28420000       1.94490000      -0.00000000
C        1.25600000       3.34060000       0.01210000
N        2.36780000       4.08060000       0.00620000
C        3.51210000       3.39990000      -0.01220000
C        3.54670000       2.00010000      -0.02450000
N        2.44130000       1.26680000      -0.01860000
H       -0.90270000       1.83160000       0.02250000
H        0.30900000       3.87600000       0.02690000
H        4.43230000       3.97860000      -0.01730000
H        4.49540000       1.46920000      -0.03950000
