21
Properties=species:S:1:pos:R:3 gdb_120521=T pbc="F F F"
C       -0.48020000       1.48000000       0.68510000
O       -0.18310000       0.19110000       0.20620000
C       -1.33430000      -0.57720000      -0.06580000
C       -0.89780000      -1.94460000      -0.56270000
C       -0.23550000      -2.83050000       0.52790000
C       -1.59290000      -3.59010000       0.70690000
C       -2.06320000      -2.96930000      -0.65150000
C       -1.57130000      -5.03170000       0.83700000
C       -1.54020000      -6.23130000       0.92340000
H        0.46910000       1.98960000       0.86760000
H       -1.06230000       2.06440000      -0.04530000
H       -1.05170000       1.44580000       1.62670000
H       -1.95380000      -0.67230000       0.84490000
H       -1.96140000      -0.08010000      -0.82700000
H       -0.31120000      -1.81360000      -1.47520000
H        0.53500000      -3.48730000       0.11970000
H        0.16280000      -2.31610000       1.40440000
H       -2.16240000      -3.15690000       1.53570000
H       -3.08220000      -2.57330000      -0.67950000
H       -1.93610000      -3.67290000      -1.47620000
H       -1.51590000      -7.28940000       1.00630000
