20
Properties=species:S:1:pos:R:3 gdb_126725=T pbc="F F F"
C       -0.12770000       1.52960000      -0.33610000
C       -0.07410000       0.08010000       0.15080000
N       -1.37020000      -0.57370000       0.11930000
C       -1.88960000      -1.34160000      -0.88060000
C       -3.18840000      -1.65490000      -0.51110000
N       -4.09490000      -2.47790000      -1.18850000
C       -5.48740000      -2.41220000      -0.77780000
C       -3.35270000      -1.01120000       0.73810000
N       -2.24620000      -0.36050000       1.10810000
H        0.86440000       1.98750000      -0.27320000
H       -0.46630000       1.58210000      -1.37520000
H       -0.81880000       2.10840000       0.28180000
H        0.61030000      -0.51340000      -0.46310000
H        0.28000000       0.03760000       1.18410000
H       -1.30940000      -1.61090000      -1.74890000
H       -3.98980000      -2.42230000      -2.19160000
H       -6.08180000      -3.05800000      -1.42870000
H       -5.59010000      -2.79000000       0.24510000
H       -5.91490000      -1.39620000      -0.80570000
H       -4.21770000      -1.00590000       1.38340000
