16
Properties=species:S:1:pos:R:3 gdb_69294=T pbc="F F F"
C       -0.04200000       1.57790000       0.04370000
C        0.05790000       0.08030000      -0.00230000
C       -0.83820000      -0.84830000       0.81540000
C        0.63000000      -0.97020000       0.99960000
C        1.21910000      -1.82040000      -0.13950000
C        0.75870000      -3.18950000      -0.28350000
N        0.35860000      -4.26790000      -0.40450000
C        0.66150000      -0.70350000      -1.11990000
O        0.87960000      -0.48140000      -2.27130000
H        0.89180000       2.04670000      -0.28100000
H       -0.84040000       1.93170000      -0.61640000
H       -0.26800000       1.92420000       1.05660000
H       -1.37740000      -0.33010000       1.60180000
H       -1.40070000      -1.64800000       0.34310000
H        1.14290000      -0.76640000       1.92980000
H        2.31180000      -1.78300000      -0.18540000
