14
Properties=species:S:1:pos:R:3 gdb_94501=T pbc="F F F"
O        0.18570000       1.34630000      -0.31000000
C        0.11300000       0.00800000       0.07780000
C       -0.16380000      -0.31850000       1.56280000
O       -1.31570000      -1.11920000       1.20400000
C       -1.27260000      -0.66980000      -0.16860000
C       -2.36320000       0.22500000      -0.51610000
C       -3.28220000       0.95220000      -0.80890000
C       -4.31690000       1.77870000      -1.13940000
N       -5.19750000       2.48120000      -1.42340000
H        1.10770000       1.59800000      -0.41310000
H        0.92350000      -0.59320000      -0.34810000
H        0.58460000      -0.90430000       2.10550000
H       -0.44390000       0.56960000       2.14180000
H       -1.26080000      -1.51780000      -0.86410000
