21
Properties=species:S:1:pos:R:3 gdb_112707=T pbc="F F F"
C        0.70380000       1.38690000      -0.46010000
C        0.13840000       0.07470000       0.07360000
O        0.22070000      -0.94020000      -0.93240000
C        1.24050000      -1.86270000      -0.58920000
C        2.30750000      -1.98280000      -1.67660000
O        3.10500000      -0.82370000      -1.77050000
O        1.86290000      -1.38410000       0.58480000
C        0.89550000      -0.57180000       1.25420000
C        1.59380000       0.34350000       2.24130000
H        1.74780000       1.26550000      -0.75810000
H        0.13960000       1.68430000      -1.34820000
H        0.62240000       2.18880000       0.28060000
H       -0.92010000       0.20280000       0.32990000
H        0.77250000      -2.84670000      -0.40700000
H        2.91260000      -2.87940000      -1.46540000
H        1.81130000      -2.12660000      -2.64060000
H        3.38320000      -0.63080000      -0.86660000
H        0.19590000      -1.23040000       1.79370000
H        2.31820000       0.98900000       1.73880000
H        0.86310000       0.97480000       2.75620000
H        2.12190000      -0.24790000       2.99400000
