19
Properties=species:S:1:pos:R:3 gdb_103132=T pbc="F F F"
C        0.06720000       1.25710000      -0.37800000
O       -0.11040000       0.00740000       0.27850000
C       -1.36950000      -0.56780000       0.11360000
C       -2.49180000       0.08350000       0.89290000
C       -1.66070000      -1.23580000      -1.19380000
O       -0.71890000      -1.09630000      -2.20870000
C       -1.33780000      -2.09710000       0.04540000
C       -0.04240000      -2.81620000       0.11580000
O        0.07160000      -3.92300000       0.59020000
H        1.11190000       1.53590000      -0.22470000
H       -0.13260000       1.17540000      -1.45120000
H       -0.56930000       2.04070000       0.05430000
H       -2.65660000       1.11510000       0.56560000
H       -3.42930000      -0.46210000       0.75630000
H       -2.25020000       0.09400000       1.96000000
H       -2.69980000      -1.26230000      -1.52360000
H       -0.71300000      -1.90240000      -2.73600000
H       -2.16280000      -2.63430000       0.50120000
H        0.82390000      -2.27190000      -0.30270000
