19
Properties=species:S:1:pos:R:3 gdb_97960=T pbc="F F F"
C        0.10720000       1.51790000       0.10830000
C        0.06680000      -0.01860000       0.01240000
C        0.66400000      -0.52530000      -1.21850000
C        1.16190000      -0.92570000      -2.23860000
C        1.76120000      -1.37700000      -3.48170000
O        1.94690000      -2.81010000      -3.42050000
C        2.50470000      -3.35550000      -4.52270000
C        2.64970000      -4.84940000      -4.36090000
O        2.83170000      -2.71520000      -5.49020000
H        1.13730000       1.88270000       0.07690000
H       -0.43800000       1.97380000      -0.72250000
H       -0.34910000       1.85140000       1.04480000
H        0.58980000      -0.45350000       0.87360000
H       -0.97250000      -0.36360000       0.08300000
H        1.13000000      -1.13840000      -4.34470000
H        2.73200000      -0.90100000      -3.65800000
H        3.11260000      -5.26690000      -5.25410000
H        3.25960000      -5.07420000      -3.48160000
H        1.66830000      -5.30450000      -4.20050000
