14
Properties=species:S:1:pos:R:3 gdb_4791=T pbc="F F F"
C       -0.05910000       1.40810000      -0.08150000
N        0.14750000      -0.02810000       0.00530000
C        0.64600000      -0.73470000      -1.04680000
N        0.57760000      -2.02630000      -1.22790000
C        1.29400000      -2.22180000      -2.39580000
O        1.44860000      -3.45650000      -2.90970000
C        1.76010000      -1.04890000      -2.87920000
O        1.32620000      -0.06050000      -1.98560000
H        0.87020000       1.89280000      -0.38720000
H       -0.84510000       1.69190000      -0.79550000
H       -0.33090000       1.78100000       0.90800000
H       -0.51810000      -0.55620000       0.54740000
H        0.99510000      -4.05900000      -2.30820000
H        2.33160000      -0.72540000      -3.72710000
