14
Properties=species:S:1:pos:R:3 gdb_1994=T pbc="F F F"
O        0.05560000       0.15780000      -0.88060000
C        0.00960000       1.26680000      -0.12230000
O        0.96470000       1.65700000       0.49240000
C       -1.33580000       2.00450000      -0.15440000
C       -2.53930000       1.10340000       0.05490000
C       -3.68490000       1.09360000      -0.88780000
N       -2.68460000       0.01380000      -0.93780000
H       -0.84170000      -0.02230000      -1.23770000
H       -3.04080000      -0.83080000      -0.50110000
H       -1.30310000       2.79280000       0.59940000
H       -1.41170000       2.48710000      -1.13660000
H       -2.75060000       0.84490000       1.08960000
H       -4.67250000       0.85240000      -0.50630000
H       -3.67880000       1.76270000      -1.74340000
