18
Properties=species:S:1:pos:R:3 gdb_59014=T pbc="F F F"
C        0.02300000       1.52740000       0.51520000
C       -0.08320000       0.11090000      -0.03500000
O        0.75910000      -0.82060000       0.64680000
C       -1.50790000      -0.39800000      -0.05170000
N       -2.56690000       0.31780000      -0.08700000
C       -3.69150000      -0.62730000      -0.13380000
C       -3.08630000      -2.03010000      -0.07870000
N       -3.72550000      -3.12680000      -0.05430000
N       -1.71590000      -1.77310000      -0.06420000
H        1.05620000       1.87650000       0.44950000
H       -0.62910000       2.20010000      -0.04530000
H       -0.29900000       1.55930000       1.56200000
H        0.28140000       0.09360000      -1.07050000
H        0.61720000      -0.70240000       1.59310000
H       -4.37840000      -0.45830000       0.70190000
H       -4.27130000      -0.48960000      -1.05330000
H       -3.09790000      -3.93190000      -0.02330000
H       -0.97660000      -2.44350000       0.06730000
