16
Properties=species:S:1:pos:R:3 gdb_23456=T pbc="F F F"
O       -0.15300000       1.32090000      -0.04790000
N        0.00420000      -0.07690000      -0.12860000
C       -1.11940000      -0.65360000       0.02640000
C       -2.45810000      -0.00330000       0.28550000
O       -3.39230000      -1.07010000       0.50840000
C       -2.73230000      -2.31690000       0.48480000
C       -2.31850000      -2.73970000      -0.88880000
O       -2.80310000      -2.03460000      -1.98190000
C       -1.28650000      -2.11990000       0.07120000
H        0.74880000       1.63640000      -0.16770000
H       -2.41780000       0.64730000       1.16780000
H       -2.78020000       0.60380000      -0.56790000
H       -3.07100000      -3.00220000       1.25390000
H       -2.17550000      -3.80060000      -1.07920000
H       -3.59010000      -1.56360000      -1.67660000
H       -0.47150000      -2.73660000       0.42660000
