14
Properties=species:S:1:pos:R:3 gdb_128447=T pbc="F F F"
C        0.11470000       1.34110000       0.05390000
O        0.12950000      -0.08850000      -0.03120000
C        0.78870000      -0.58390000      -1.09210000
O        1.33820000       0.08340000      -1.92960000
C        0.75460000      -2.07120000      -1.10260000
N        0.14370000      -2.79530000      -0.17050000
N        0.37810000      -4.04960000      -0.59460000
C        1.10300000      -4.03680000      -1.73700000
N        1.35980000      -2.79740000      -2.08850000
H        1.13230000       1.73390000       0.12450000
H       -0.36740000       1.77490000      -0.82600000
H       -0.45030000       1.57650000       0.95550000
H        0.02250000      -4.83060000      -0.06610000
H        1.40740000      -4.93290000      -2.25640000
