19
Properties=species:S:1:pos:R:3 gdb_61665=T pbc="F F F"
N        0.08350000       1.50680000      -0.01200000
C       -0.08370000       0.05120000      -0.02480000
C       -1.57720000      -0.32580000       0.04920000
C       -2.17300000       0.06160000       1.39300000
C       -3.54790000      -0.53650000       1.76580000
C       -2.78850000      -1.18400000       2.94110000
O       -1.52830000      -0.64860000       2.48180000
C        0.55590000      -0.59320000      -1.19160000
N        1.05920000      -1.05380000      -2.12550000
H        1.06460000       1.74650000       0.09190000
H       -0.21700000       1.89720000      -0.90110000
H        0.39330000      -0.34870000       0.87720000
H       -2.12430000       0.17350000      -0.76070000
H       -1.68120000      -1.40560000      -0.09960000
H       -2.08930000       1.14420000       1.53960000
H       -4.32250000       0.18280000       2.03420000
H       -3.94900000      -1.24010000       1.03320000
H       -3.05240000      -0.80200000       3.93480000
H       -2.78130000      -2.27960000       2.97410000
