23
Properties=species:S:1:pos:R:3 gdb_80146=T pbc="F F F"
C       -0.12730000       1.52510000      -0.03010000
C       -0.00060000       0.01660000       0.02260000
C        1.31150000      -0.73450000      -0.27240000
C        2.58830000      -0.00030000      -0.41210000
C        3.10540000       0.76870000       0.55020000
C        2.43460000       0.97050000       1.88240000
C        1.46120000      -0.16840000       2.25180000
C        0.67430000      -0.79390000       1.10380000
C       -0.01140000      -2.08890000       1.50270000
H        0.84370000       2.02350000      -0.04750000
H       -0.65890000       1.82360000      -0.93990000
H       -0.69730000       1.91220000       0.82270000
H       -0.87380000      -0.48720000      -0.38690000
H        1.21310000      -1.61250000      -0.90510000
H        3.11090000      -0.10060000      -1.36020000
H        4.04030000       1.29540000       0.37750000
H        3.19100000       1.06130000       2.67150000
H        1.90520000       1.93260000       1.88460000
H        2.04580000      -0.97980000       2.70490000
H        0.77200000       0.17600000       3.03310000
H       -0.74860000      -1.91850000       2.29730000
H       -0.53640000      -2.54140000       0.65570000
H        0.71330000      -2.82200000       1.87680000
