19
Properties=species:S:1:pos:R:3 gdb_52075=T pbc="F F F"
O       -0.30920000      -0.00460000      -0.38880000
C       -0.01810000       1.10840000      -0.03290000
C        1.33680000       1.75090000      -0.21080000
C        1.23740000       3.07500000      -0.99540000
C        2.56620000       3.79610000      -1.12000000
C        3.59430000       3.32420000      -2.14460000
C        2.87240000       4.60530000      -2.38020000
C        3.12840000       4.37360000       0.12500000
O        2.60100000       4.32350000       1.21030000
H       -0.77020000       1.76240000       0.46920000
H        1.73460000       1.97220000       0.78720000
H        2.00060000       1.03680000      -0.70640000
H        0.84100000       2.87680000      -1.99780000
H        0.52330000       3.73880000      -0.49410000
H        4.64290000       3.36350000      -1.86870000
H        3.31710000       2.45470000      -2.73010000
H        2.08890000       4.63610000      -3.12880000
H        3.41800000       5.53600000      -2.26410000
H        4.10930000       4.88700000      -0.01330000
