14
Properties=species:S:1:pos:R:3 gdb_81262=T pbc="F F F"
O        0.16560000       1.37160000      -0.12520000
C        0.09340000      -0.01650000      -0.06800000
C        0.15550000      -0.62840000       1.37230000
N       -1.30690000      -0.25340000       1.46520000
C       -1.35600000      -0.60650000      -0.00480000
C       -1.11950000      -2.11070000       0.06440000
O       -1.64380000      -3.02410000      -0.50610000
C        0.04080000      -2.12750000       1.12170000
O        0.64320000      -3.05720000       1.57730000
H       -0.44040000       1.71510000       0.54530000
H        0.77400000      -0.41510000      -0.82130000
H        0.84020000      -0.27030000       2.13870000
H       -1.86690000      -0.85790000       2.07010000
H       -2.17680000      -0.22670000      -0.61020000
