21
Properties=species:S:1:pos:R:3 gdb_100485=T pbc="F F F"
C        0.09960000       1.55580000       0.04530000
C        0.00320000       0.02850000      -0.00130000
C       -1.44750000      -0.51390000      -0.03680000
C       -2.21250000      -0.09700000      -1.30970000
C       -1.44950000      -1.97030000       0.10930000
C       -1.43750000      -3.16970000       0.21040000
C       -1.42530000      -4.62850000       0.34320000
C       -2.76080000      -5.23010000       0.35010000
C       -3.84970000      -5.73580000       0.35700000
H        1.14250000       1.87270000       0.14220000
H       -0.30090000       2.02250000      -0.85950000
H       -0.45060000       1.96190000       0.90190000
H        0.54180000      -0.35700000      -0.87570000
H        0.50290000      -0.39430000       0.87710000
H       -1.97830000      -0.08860000       0.82790000
H       -2.29250000       0.99100000      -1.38000000
H       -1.69960000      -0.46510000      -2.20410000
H       -3.22290000      -0.51350000      -1.30560000
H       -0.83770000      -5.06880000      -0.47450000
H       -0.89970000      -4.91070000       1.26620000
H       -4.81520000      -6.17740000       0.36260000
