21
Properties=species:S:1:pos:R:3 gdb_96156=T pbc="F F F"
C        0.02690000       1.54140000       0.07360000
C       -0.01110000       0.01860000       0.01210000
C        0.68560000      -0.52490000      -1.24250000
C        0.65640000      -2.04610000      -1.40970000
O        1.36350000      -2.73070000      -0.38140000
C        0.60970000      -2.92230000       0.77220000
C        1.29950000      -2.65650000       2.08220000
C        0.22360000      -1.71890000       1.60530000
O        0.63520000      -0.45470000       1.20000000
H        1.06300000       1.89370000       0.09460000
H       -0.47040000       1.97990000      -0.79670000
H       -0.47200000       1.89780000       0.97840000
H       -1.06060000      -0.31830000       0.01960000
H        0.21790000      -0.07590000      -2.12940000
H        1.73140000      -0.19530000      -1.22430000
H       -0.38110000      -2.41120000      -1.46660000
H        1.15340000      -2.31910000      -2.34660000
H       -0.10270000      -3.74750000       0.71550000
H        1.10460000      -3.30530000       2.92820000
H        2.31150000      -2.27660000       2.00340000
H       -0.74670000      -1.74210000       2.10500000
