20
Properties=species:S:1:pos:R:3 gdb_116701=T pbc="F F F"
C        0.00960000       1.35340000       0.04230000
O       -0.11460000      -0.06330000      -0.02200000
C        0.53180000      -0.65920000      -1.03960000
N        0.48610000      -1.90840000      -1.18750000
C        1.19940000      -2.50330000      -2.29960000
C        2.03090000      -3.72600000      -1.80490000
C        0.78660000      -4.62410000      -2.07540000
O       -0.03270000      -4.82410000      -0.94820000
C        0.27550000      -3.51530000      -3.04360000
H        1.05490000       1.65850000       0.17170000
H       -0.40020000       1.83270000      -0.85480000
H       -0.56580000       1.67190000       0.91190000
H        1.08240000       0.02430000      -1.70360000
H        1.72350000      -1.75750000      -2.91550000
H        2.85570000      -3.94670000      -2.48880000
H        2.39930000      -3.69290000      -0.77740000
H        0.97030000      -5.61240000      -2.50390000
H       -0.19460000      -3.94740000      -0.56970000
H       -0.79690000      -3.30920000      -3.03260000
H        0.61260000      -3.67750000      -4.07140000
