20
Properties=species:S:1:pos:R:3 gdb_78213=T pbc="F F F"
C        0.41990000       1.73910000      -0.62100000
N        0.45840000       0.30050000      -0.37100000
C        1.69150000      -0.46880000      -0.42710000
C        0.85670000      -0.35050000       0.84660000
C        2.01290000       0.32280000       1.63120000
C        1.78460000       1.63480000       2.37800000
C        2.69380000      -0.70150000       2.55910000
C        2.80520000       0.28780000       0.28540000
O        3.92010000       0.61220000      -0.00890000
H        1.32940000       2.28860000      -0.34970000
H        0.24920000       1.88520000      -1.69200000
H       -0.42930000       2.16950000      -0.08200000
H        1.79130000      -1.26670000      -1.15530000
H        0.19650000      -1.10810000       1.25820000
H        1.21970000       1.45520000       3.29970000
H        2.74710000       2.07490000       2.66070000
H        1.23760000       2.37410000       1.79280000
H        2.87110000      -1.65560000       2.05240000
H        3.65800000      -0.31810000       2.90490000
H        2.06590000      -0.89600000       3.43550000
