20
Properties=species:S:1:pos:R:3 gdb_51554=T pbc="F F F"
O        0.63600000       1.12220000       1.72700000
C        0.37120000       1.58010000       0.63600000
N        1.25160000       1.70820000      -0.39520000
C        2.58550000       1.18740000      -0.33610000
C        3.68000000       1.91990000      -1.07460000
C        3.65260000       1.92710000       0.42470000
C        3.39750000       3.08880000       1.39020000
C        3.97520000       2.19080000       2.52300000
C        4.58630000       1.25560000       1.43780000
H       -0.63570000       1.95870000       0.36540000
H        0.88970000       2.01150000      -1.28640000
H        2.64390000       0.10070000      -0.30650000
H        4.42720000       1.32570000      -1.59100000
H        3.40920000       2.84140000      -1.58270000
H        4.03620000       3.95100000       1.17130000
H        2.36640000       3.42990000       1.49980000
H        4.66650000       2.65570000       3.22860000
H        3.17210000       1.69340000       3.06920000
H        4.47380000       0.17720000       1.57940000
H        5.64060000       1.47790000       1.24120000
