15
Properties=species:S:1:pos:R:3 gdb_45959=T pbc="F F F"
N       -0.21680000       1.31080000      -0.16430000
C       -0.01670000       0.04870000      -0.09780000
N        1.17670000      -0.62010000      -0.22530000
C        1.35900000      -2.06180000      -0.11810000
C        0.14010000      -2.82170000      -0.64400000
O        0.22730000      -3.79190000      -1.35540000
C       -1.16950000      -2.26840000      -0.17840000
O       -1.14210000      -1.77400000       1.16660000
C       -1.22060000      -0.81480000       0.11660000
H        0.65270000       1.82470000      -0.32390000
H        2.01170000      -0.05640000      -0.23960000
H        2.22030000      -2.36760000      -0.71520000
H        1.52760000      -2.38340000       0.92150000
H       -2.06510000      -2.80370000      -0.48310000
H       -2.16400000      -0.28420000       0.03260000
