21
Properties=species:S:1:pos:R:3 gdb_75421=T pbc="F F F"
C       -0.17850000       1.53900000       0.03230000
C       -0.02360000       0.04100000       0.00500000
C       -0.05750000      -0.64760000      -1.13990000
C        0.09480000      -2.14200000      -1.27380000
C        1.44640000      -2.70620000      -0.75900000
C        1.54560000      -2.71980000       0.75880000
O        1.61070000      -3.76380000       1.36990000
C        1.52730000      -1.38690000       1.49490000
C        0.18120000      -0.62810000       1.34990000
H        0.69750000       2.01990000       0.48730000
H       -0.31210000       1.95340000      -0.97040000
H       -1.04260000       1.83450000       0.64160000
H       -0.19830000      -0.09550000      -2.06660000
H       -0.71890000      -2.66630000      -0.75300000
H        0.00030000      -2.41770000      -2.32810000
H        1.57060000      -3.73940000      -1.09340000
H        2.26240000      -2.10290000      -1.17520000
H        1.71640000      -1.60790000       2.54840000
H        2.33710000      -0.74810000       1.12150000
H        0.13980000       0.12900000       2.13900000
H       -0.63920000      -1.32750000       1.56060000
