18
Properties=species:S:1:pos:R:3 gdb_78571=T pbc="F F F"
C        0.02840000       1.56550000      -0.00280000
N        0.04990000       0.10650000      -0.01420000
C        0.74900000      -0.57400000      -1.10590000
C        2.27380000      -0.57740000      -0.83320000
C        2.42060000      -0.04830000       0.55260000
O        3.34410000       0.35000000       1.20840000
C        0.99980000      -0.57200000       0.90900000
C        1.28640000      -1.63570000      -0.22790000
C        1.33930000      -3.12560000      -0.24180000
H        1.01980000       2.03020000      -0.13000000
H       -0.62470000       1.91800000      -0.80730000
H       -0.39140000       1.90840000       0.94790000
H        0.36600000      -0.63010000      -2.11890000
H        3.02260000      -0.72950000      -1.59830000
H        0.69170000      -0.74420000       1.93850000
H        0.37570000      -3.55360000       0.05430000
H        1.57910000      -3.49510000      -1.24370000
H        2.10340000      -3.50270000       0.44580000
