15
Properties=species:S:1:pos:R:3 gdb_18751=T pbc="F F F"
O        0.03850000       1.37510000       0.64090000
C        0.03500000       0.08090000       0.08930000
C        0.40910000      -0.99090000       1.13690000
N       -0.91770000      -1.68040000       1.00570000
C       -1.93350000      -1.17240000       1.98530000
C       -2.41790000      -0.13890000       0.95250000
O       -3.28710000       0.67780000       0.89990000
C       -1.34520000      -0.64140000      -0.02220000
H       -0.35810000       1.98450000       0.00840000
H        0.61810000       0.03340000      -0.83930000
H        1.23450000      -1.64680000       0.84970000
H        0.61000000      -0.57260000       2.12800000
H       -2.68500000      -1.92790000       2.24040000
H       -1.52690000      -0.75380000       2.91280000
H       -1.67470000      -0.97630000      -1.00940000
