15
Properties=species:S:1:pos:R:3 gdb_21310=T pbc="F F F"
C       -0.04710000       1.40280000       0.01030000
O        0.00970000      -0.00430000       0.00240000
C       -1.26710000      -0.60220000       0.01090000
C       -1.08940000      -2.08500000       0.00220000
C        0.07230000      -2.81730000      -0.00900000
N       -0.36120000      -4.10100000      -0.01340000
N       -1.70330000      -4.17240000      -0.00370000
N       -2.14580000      -2.94700000       0.00490000
H        0.98150000       1.77040000       0.00270000
H       -0.57240000       1.79460000      -0.87480000
H       -0.55590000       1.78520000       0.90890000
H       -1.84030000      -0.29380000       0.90170000
H       -1.85620000      -0.28540000      -0.86630000
H        1.11060000      -2.53790000      -0.01450000
H        0.17730000      -4.95230000      -0.02200000
