13
Properties=species:S:1:pos:R:3 gdb_132396=T pbc="F F F"
O        0.03690000       1.36620000      -0.13090000
C        0.05290000       0.01810000      -0.03790000
C        0.01270000      -0.71100000      -1.23090000
C        0.03020000      -2.08710000      -1.10590000
F       -0.00650000      -2.82360000      -2.21060000
N        0.08100000      -2.76500000       0.02600000
C        0.11840000      -2.04430000       1.14490000
O        0.17040000      -2.72030000       2.30840000
C        0.10710000      -0.65150000       1.18260000
H        0.06810000       1.74860000       0.75290000
H       -0.02970000      -0.22200000      -2.19350000
H        0.16980000      -3.65870000       2.07430000
H        0.13970000      -0.13010000       2.13170000
