15
Properties=species:S:1:pos:R:3 gdb_68526=T pbc="F F F"
C       -0.07870000       1.47720000      -0.06590000
C        0.05380000      -0.01270000       0.01890000
O        0.70740000      -0.60030000      -1.08370000
C        0.50960000      -1.95730000      -0.65050000
C        1.04200000      -1.91700000       0.78520000
C        0.75890000      -0.68710000       1.20820000
C       -1.03420000      -1.91530000      -0.48340000
O       -1.85550000      -2.76320000      -0.65970000
O       -1.28870000      -0.64710000      -0.05770000
H        0.91310000       1.93530000      -0.04430000
H       -0.58340000       1.75280000      -0.99380000
H       -0.66100000       1.84930000       0.78020000
H        0.89460000      -2.68820000      -1.35470000
H        1.44970000      -2.75900000       1.32450000
H        0.88950000      -0.24190000       2.18370000
