18
Properties=species:S:1:pos:R:3 gdb_95918=T pbc="F F F"
C       -0.50490000       1.33930000       0.05910000
C        0.10780000      -0.05200000      -0.05590000
C        1.20750000      -0.20810000      -1.11420000
O        1.95590000      -1.36770000      -0.74880000
C        1.69060000      -1.71460000       0.59860000
C        0.86960000      -0.54940000       1.19730000
O        1.69670000       0.51490000       1.63860000
C       -0.02150000      -0.99290000       2.28340000
N       -0.70000000      -1.33810000       3.15310000
H        0.25710000       2.08270000       0.30200000
H       -0.97960000       1.62320000      -0.88510000
H       -1.27110000       1.36650000       0.83930000
H       -0.67730000      -0.78940000      -0.25890000
H        0.80210000      -0.35670000      -2.11990000
H        1.86150000       0.67440000      -1.12590000
H        1.12710000      -2.65640000       0.65130000
H        2.63270000      -1.84660000       1.14530000
H        2.24750000       0.19870000       2.36320000
