20
Properties=species:S:1:pos:R:3 gdb_62735=T pbc="F F F"
C        0.01560000       1.53500000       0.06190000
C        0.05430000       0.01920000       0.04460000
C       -1.16750000      -0.62180000      -0.59260000
C        1.32550000      -0.74260000      -0.16270000
O        2.46010000      -0.00700000       0.36370000
C        1.92140000      -0.10700000       1.64630000
N        2.40440000       0.22220000       2.75550000
C        0.67060000      -0.80480000       1.20830000
C       -0.01580000      -1.86210000       2.02460000
H        0.93310000       1.96470000       0.46620000
H       -0.11930000       1.92360000      -0.95390000
H       -0.82460000       1.88960000       0.66860000
H       -1.33400000      -0.19510000      -1.58740000
H       -1.05850000      -1.70380000      -0.71070000
H       -2.06790000      -0.43790000       0.00350000
H        1.53340000      -1.49690000      -0.91130000
H        3.32990000       0.64080000       2.64710000
H       -0.43360000      -1.41890000       2.93460000
H       -0.83240000      -2.33950000       1.47900000
H        0.69050000      -2.63900000       2.33370000
