21
Properties=species:S:1:pos:R:3 gdb_116647=T pbc="F F F"
C        0.79370000      -0.33240000      -0.20260000
C       -0.13330000      -0.67800000       0.96700000
N       -1.45410000      -1.21770000       0.68610000
C       -1.83180000      -1.39900000      -0.50950000
N       -3.09280000      -1.91460000      -0.79180000
C       -3.96100000      -2.23750000       0.34030000
C       -3.56430000      -2.13590000      -2.08510000
C       -2.64450000      -1.79200000      -3.24700000
O       -4.67420000      -2.58730000      -2.28300000
H        1.73910000       0.05840000       0.18520000
H        1.02620000      -1.21040000      -0.81510000
H        0.36250000       0.43490000      -0.85490000
H        0.37050000      -1.39840000       1.62580000
H       -0.28110000       0.21700000       1.58660000
H       -1.23320000      -1.17880000      -1.39210000
H       -4.13810000      -1.34170000       0.94040000
H       -4.89460000      -2.62450000      -0.06010000
H       -3.47670000      -2.97850000       0.98070000
H       -1.71670000      -2.37130000      -3.21950000
H       -3.18670000      -2.03210000      -4.16080000
H       -2.37850000      -0.73060000      -3.25790000
