16
Properties=species:S:1:pos:R:3 gdb_25803=T pbc="F F F"
C        0.02680000       1.43840000      -0.01930000
C        0.01270000      -0.07050000      -0.13150000
O        1.00600000      -0.74110000      -0.30890000
C       -1.32150000      -0.70390000      -0.00920000
N       -2.47130000      -0.12260000       0.18130000
C       -3.38110000      -1.15660000       0.21920000
C       -2.72840000      -2.34200000       0.04640000
C       -3.14610000      -3.76400000      -0.00780000
O       -1.40710000      -2.05790000      -0.10070000
H        1.05290000       1.79180000      -0.12380000
H       -0.60850000       1.88400000      -0.79080000
H       -0.38680000       1.75290000       0.94360000
H       -4.43630000      -0.98750000       0.36660000
H       -2.88160000      -4.21840000      -0.96860000
H       -2.65930000      -4.35030000       0.77880000
H       -4.22750000      -3.83810000       0.12420000
