21
Properties=species:S:1:pos:R:3 gdb_122304=T pbc="F F F"
C        0.70970000       0.94220000       1.15810000
C        0.01800000      -0.06890000       0.24690000
O        0.79050000      -1.23880000       0.00220000
C        0.58970000      -2.32250000       0.88640000
C        1.33630000      -2.24200000       2.18400000
C        2.82020000      -2.32570000       2.35780000
C        1.92620000      -3.29200000       3.10830000
C        1.20910000      -2.53510000       4.21770000
O        0.75340000      -1.51750000       3.28500000
H        1.68960000       1.20970000       0.75080000
H        0.10640000       1.85460000       1.22410000
H        0.84250000       0.54420000       2.16690000
H       -0.96400000      -0.34770000       0.65860000
H       -0.15540000       0.37740000      -0.73950000
H       -0.48220000      -2.45640000       1.10030000
H        0.94180000      -3.21280000       0.35200000
H        3.36370000      -2.76000000       1.52480000
H        3.34200000      -1.53280000       2.88670000
H        1.98750000      -4.36670000       3.00250000
H        0.35490000      -3.07360000       4.64330000
H        1.82150000      -2.11520000       5.02460000
