17
Properties=species:S:1:pos:R:3 gdb_14765=T pbc="F F F"
O       -0.14530000       1.42510000       0.01090000
C       -0.00520000       0.01480000       0.00230000
C       -1.40700000      -0.58280000       0.01240000
C       -1.39120000      -2.10290000       0.00400000
O       -2.73530000      -2.55910000       0.01440000
C       -2.82440000      -3.95950000       0.00770000
C       -4.23580000      -4.35670000       0.01900000
N       -5.33700000      -4.70300000       0.02740000
H        0.73310000       1.81630000       0.00510000
H        0.54240000      -0.32740000      -0.89170000
H        0.55900000      -0.33660000       0.88230000
H       -1.94180000      -0.23030000       0.90010000
H       -1.95850000      -0.22080000      -0.86130000
H       -0.87140000      -2.48610000      -0.89070000
H       -0.85440000      -2.49570000       0.88440000
H       -2.34600000      -4.39470000      -0.88570000
H       -2.32920000      -4.40420000       0.88730000
