15
Properties=species:S:1:pos:R:3 gdb_133737=T pbc="F F F"
C        0.22950000       1.10260000      -0.78020000
N       -0.20530000       0.41390000       0.43150000
C       -1.45560000      -0.31950000       0.28070000
C       -1.38810000      -1.47230000      -0.62900000
C       -1.26140000      -2.39180000      -1.39200000
C       -1.93190000      -0.75660000       1.67560000
F       -2.18680000       0.30170000       2.44620000
F       -3.05040000      -1.48570000       1.59490000
F       -0.99790000      -1.49930000       2.28860000
H        1.18590000       1.59300000      -0.58170000
H        0.34730000       0.44360000      -1.65440000
H       -0.49790000       1.88100000      -1.03530000
H        0.51250000      -0.23260000       0.74230000
H       -2.21700000       0.38240000      -0.08230000
H       -1.16670000      -3.21280000      -2.05970000
