15
Properties=species:S:1:pos:R:3 gdb_15463=T pbc="F F F"
N       -0.02650000       1.22310000      -0.42670000
C       -0.02630000       0.02120000      -0.05060000
O        1.07110000      -0.68570000       0.34440000
C        0.71220000      -2.03870000       0.67820000
C       -0.61740000      -2.28660000      -0.04050000
C       -1.26250000      -0.88190000       0.01360000
C       -2.00830000      -0.65970000       1.24860000
C       -2.61190000      -0.50630000       2.27620000
H        0.91510000       1.61620000      -0.37800000
H        1.52330000      -2.69060000       0.34760000
H        0.60690000      -2.12060000       1.76620000
H       -0.43890000      -2.56750000      -1.08260000
H       -1.22380000      -3.05760000       0.43520000
H       -1.90190000      -0.67500000      -0.84750000
H       -3.15200000      -0.34910000       3.17700000
