17
Properties=species:S:1:pos:R:3 gdb_3263=T pbc="F F F"
C       -0.02780000       1.34630000      -0.04750000
C        1.25370000       2.17770000       0.06370000
C        2.07310000       1.98230000       1.31670000
C        2.34990000       0.83460000       1.93790000
C        1.91310000      -0.55570000       1.54310000
C        0.46670000      -0.70310000       1.06170000
O        0.18760000      -0.04640000      -0.15860000
H       -0.68440000       1.56050000       0.81150000
H       -0.56170000       1.63660000      -0.95910000
H        1.87570000       1.96460000      -0.81820000
H        0.96790000       3.23350000      -0.01890000
H        2.51400000       2.88870000       1.72690000
H        2.99730000       0.88530000       2.81120000
H        2.57590000      -0.93780000       0.75260000
H        2.04500000      -1.23100000       2.39740000
H        0.25860000      -1.76360000       0.88120000
H       -0.22300000      -0.35230000       1.84680000
