19
Properties=species:S:1:pos:R:3 gdb_51283=T pbc="F F F"
O        0.13880000      -0.15760000      -0.45880000
C        0.06820000       1.01850000      -0.21700000
C        1.26340000       1.94770000      -0.05350000
C        1.28530000       2.95520000      -1.17020000
C        1.00000000       4.26050000      -1.08840000
C        1.06740000       4.95400000      -2.43220000
C        1.56190000       3.85690000      -3.37640000
C        2.90600000       3.23670000      -3.10250000
C        1.65120000       2.57080000      -2.57030000
H       -0.91540000       1.53270000      -0.11910000
H        1.16000000       2.46250000       0.90960000
H        2.17060000       1.33540000      -0.04090000
H        0.77300000       4.78870000      -0.16830000
H        0.07960000       5.32790000      -2.73470000
H        1.73330000       5.82680000      -2.41680000
H        1.19920000       3.84540000      -4.39720000
H        3.40710000       2.76160000      -3.93950000
H        3.56960000       3.71070000      -2.38560000
H        1.35890000       1.60290000      -2.96300000
