14
Properties=species:S:1:pos:R:3 gdb_1196=T pbc="F F F"
C        0.04540000       1.49240000      -0.06270000
C        0.02530000       0.03740000      -0.04110000
C       -0.00580000      -1.16450000      -0.01780000
C       -0.03120000      -2.61690000       0.00480000
C       -1.42780000      -3.21140000       0.28280000
N       -1.53210000      -4.53090000      -0.06470000
O       -2.32910000      -2.59700000       0.80550000
H        0.80200000       1.89200000       0.62170000
H        0.26940000       1.87510000      -1.06460000
H       -0.92450000       1.90200000       0.23990000
H        0.35810000      -3.02390000      -0.93800000
H        0.63570000      -2.99900000       0.79090000
H       -0.84280000      -4.99140000      -0.63260000
H       -2.43010000      -4.97270000       0.04690000
