21
Properties=species:S:1:pos:R:3 gdb_70996=T pbc="F F F"
C       -0.14740000       1.58170000      -0.03380000
C        0.02750000       0.08910000      -0.00070000
C        1.12990000      -0.71150000      -0.85930000
C        0.69040000      -1.83220000       0.14970000
C        1.09690000      -2.84180000       1.26690000
C        0.34730000      -1.86270000       2.27670000
C        0.62120000      -0.74850000       1.20460000
C       -0.78720000      -1.95640000      -0.28330000
O       -1.17950000      -0.57420000      -0.36540000
H        0.77490000       2.08510000       0.26810000
H       -0.41350000       1.91610000      -1.04150000
H       -0.95000000       1.88150000       0.64700000
H        0.89900000      -0.82770000      -1.92320000
H        2.14870000      -0.35220000      -0.71340000
H        0.73820000      -3.87200000       1.18440000
H        2.17150000      -2.85360000       1.46470000
H       -0.69960000      -2.12950000       2.42210000
H        0.81140000      -1.71480000       3.25440000
H        1.63050000      -0.36940000       1.39430000
H       -0.88450000      -2.43720000      -1.26490000
H       -1.43130000      -2.48670000       0.42530000
