11
Properties=species:S:1:pos:R:3 gdb_132242=T pbc="F F F"
F        0.08610000       0.10000000       0.10770000
C       -0.07880000       1.38420000      -0.02430000
N       -1.19130000       1.93050000       0.20840000
C       -1.26580000       3.32430000       0.03770000
O       -2.26230000       3.96610000       0.22500000
N       -0.07450000       3.93400000      -0.37500000
C        1.12420000       3.31340000      -0.62080000
N        2.16610000       3.90700000      -0.98990000
O        1.07980000       1.92790000      -0.41850000
H       -0.09500000       4.93520000      -0.50670000
H        2.94520000       3.26670000      -1.11710000
