21
Properties=species:S:1:pos:R:3 gdb_92102=T pbc="F F F"
C       -0.03930000       1.50690000       0.03890000
C        0.02220000       0.00790000      -0.02120000
C        0.82520000      -0.79480000      -1.04950000
C       -0.16260000      -1.98850000      -0.83730000
C        0.37330000      -2.96490000       0.21570000
C        0.57370000      -2.08090000       1.48070000
O        1.92560000      -1.67200000       1.69190000
C       -0.28000000      -0.85380000       1.19990000
C       -1.09800000      -1.02190000      -0.05410000
H        0.91150000       1.92710000       0.38780000
H       -0.24930000       1.93360000      -0.94910000
H       -0.82300000       1.84890000       0.72360000
H        0.71630000      -0.36000000      -2.04820000
H        1.88320000      -0.97570000      -0.83950000
H       -0.54800000      -2.45750000      -1.74270000
H       -0.36590000      -3.74880000       0.41940000
H        1.30810000      -3.45200000      -0.08350000
H        0.20590000      -2.60060000       2.37760000
H        2.43660000      -2.45520000       1.91940000
H       -0.71040000      -0.31610000       2.03770000
H       -2.17220000      -0.90780000      -0.12820000
