19
Properties=species:S:1:pos:R:3 gdb_49915=T pbc="F F F"
O        0.22870000      -0.00690000       0.72860000
C        0.17040000       1.18920000       0.52440000
N        1.14410000       1.91240000      -0.06590000
C        2.46750000       1.50800000      -0.53580000
C        2.71900000       2.98910000      -0.94860000
C        1.31970000       3.33690000      -0.35430000
N        3.82150000       3.61750000      -0.25670000
C        5.11120000       3.59240000      -0.94500000
C        4.33180000       4.85600000      -0.84340000
H       -0.70320000       1.81740000       0.79800000
H        3.12760000       1.15480000       0.26230000
H        2.44690000       0.77320000      -1.34620000
H        2.76490000       3.12830000      -2.03960000
H        0.59100000       3.75250000      -1.05840000
H        1.37940000       3.97230000       0.53570000
H        5.97740000       3.42500000      -0.31230000
H        5.15960000       3.11520000      -1.92240000
H        3.85960000       5.22320000      -1.75320000
H        4.61980000       5.62710000      -0.13560000
