17
Properties=species:S:1:pos:R:3 gdb_127334=T pbc="F F F"
C        0.25560000       1.38400000       0.03530000
N        0.00900000      -0.04080000       0.00460000
C       -0.39480000      -0.82150000      -1.01540000
N       -0.49350000      -2.07810000      -0.62720000
C       -0.12770000      -2.01640000       0.68860000
N        0.19070000      -0.80120000       1.11460000
C       -0.07470000      -3.20830000       1.55260000
C       -1.11620000      -4.26350000       1.39480000
N        0.25510000      -4.51040000       0.94090000
H        1.29530000       1.58000000       0.30910000
H        0.05790000       1.79630000      -0.95580000
H       -0.40030000       1.86440000       0.76560000
H       -0.59840000      -0.43590000      -2.00350000
H        0.36510000      -3.03380000       2.52910000
H       -1.42710000      -4.83770000       2.26320000
H       -1.88550000      -4.08700000       0.64860000
H        0.29260000      -4.37650000      -0.06880000
