25
Properties=species:S:1:pos:R:3 gdb_116006=T pbc="F F F"
C        0.00350000       1.65020000      -0.00440000
C       -0.01110000       0.11780000       0.00910000
C        0.70480000      -0.50780000      -1.19800000
C        2.22410000      -0.19870000      -1.25720000
C        2.88200000      -1.44180000      -1.90210000
C        1.84750000      -2.51570000      -1.68110000
C        0.66590000      -2.03160000      -1.28980000
C       -0.58010000      -2.84280000      -1.04840000
C       -0.77520000      -3.27150000       0.41850000
H        1.02470000       2.04310000       0.03080000
H       -0.46900000       2.04030000      -0.91330000
H       -0.53840000       2.05900000       0.85410000
H        0.45790000      -0.24650000       0.93290000
H       -1.05230000      -0.22670000       0.03400000
H        0.21180000      -0.10970000      -2.10200000
H        2.45150000       0.72820000      -1.78990000
H        2.59810000      -0.08230000      -0.23280000
H        3.06400000      -1.29470000      -2.97700000
H        3.85670000      -1.67920000      -1.45990000
H        2.04390000      -3.56500000      -1.88090000
H       -1.46040000      -2.27440000      -1.37630000
H       -0.54700000      -3.74370000      -1.67190000
H        0.07170000      -3.87610000       0.75720000
H       -0.85530000      -2.40970000       1.08640000
H       -1.68620000      -3.86870000       0.52920000
