18
Properties=species:S:1:pos:R:3 gdb_13292=T pbc="F F F"
O        0.08300000       1.30550000      -0.38020000
C       -0.06290000      -0.00060000       0.13870000
C       -1.51940000      -0.43630000       0.14400000
O       -1.95570000      -0.41230000      -1.20820000
C       -3.32380000      -0.66530000      -1.37340000
C       -4.31080000       0.50660000      -1.14250000
O       -4.78200000       0.41500000      -2.50290000
C       -3.78560000      -0.57350000      -2.83520000
H       -0.38400000       1.30720000      -1.22390000
H        0.52670000      -0.73320000      -0.43540000
H        0.32180000       0.01250000       1.16360000
H       -1.62880000      -1.44720000       0.56880000
H       -2.11420000       0.26220000       0.75180000
H       -3.60950000      -1.59380000      -0.86100000
H       -5.11780000       0.35130000      -0.41770000
H       -3.80860000       1.46170000      -0.93760000
H       -3.00610000      -0.17880000      -3.49930000
H       -4.22580000      -1.47350000      -3.27790000
