14
Properties=species:S:1:pos:R:3 gdb_17423=T pbc="F F F"
O        0.07740000       1.44610000      -0.08230000
C       -0.03890000       0.08630000      -0.08040000
C        0.43830000      -0.77150000      -1.26870000
C       -0.53940000      -1.83950000      -0.75680000
C       -0.47480000      -1.86290000       0.77480000
C       -1.36230000      -0.85340000      -0.00600000
C        0.35020000      -0.69260000       1.17880000
O        0.83490000      -0.28860000       2.20510000
H        0.30240000       1.71030000       0.82220000
H        0.09430000      -0.35710000      -2.21990000
H        1.50780000      -1.00370000      -1.31940000
H       -0.88340000      -2.72150000      -1.28010000
H       -0.80670000      -2.70320000       1.36720000
H       -2.41540000      -0.66310000       0.12980000
