20
Properties=species:S:1:pos:R:3 gdb_40213=T pbc="F F F"
C        0.12780000       1.50570000      -0.01730000
C        1.35090000       0.62350000      -0.05650000
C       -0.02290000       0.00200000       0.02210000
C       -0.46340000      -0.66360000       1.30870000
C        0.14150000      -2.05930000       1.50950000
N       -0.16280000      -3.10670000       0.55090000
C       -0.18620000      -2.99500000      -0.70320000
O       -0.04690000      -1.93610000      -1.55010000
C       -0.57720000      -0.64460000      -1.22160000
H       -0.07980000       2.05510000       0.89470000
H       -0.15480000       2.03170000      -0.92340000
H        1.89710000       0.54250000      -0.99010000
H        1.97840000       0.58320000       0.82760000
H       -0.17490000      -0.04680000       2.16860000
H       -1.55950000      -0.73550000       1.32650000
H        1.23660000      -1.96210000       1.54720000
H       -0.16310000      -2.42970000       2.49470000
H       -0.29140000      -3.90010000      -1.30440000
H       -1.66930000      -0.73620000      -1.13340000
H       -0.35660000      -0.03830000      -2.10380000
