21
Properties=species:S:1:pos:R:3 gdb_92653=T pbc="F F F"
C        0.05980000       1.57630000      -0.09000000
C        0.06980000       0.07250000       0.05010000
O        1.00390000      -0.57980000      -0.85070000
C        1.39200000      -1.50670000       0.18890000
C        2.88320000      -1.78780000       0.25430000
C        3.65070000      -0.62860000       0.90150000
C        2.93820000      -0.20430000       2.18310000
O        1.64270000       0.30720000       1.90040000
C        0.75810000      -0.59240000       1.26770000
H        1.03970000       1.98950000       0.15200000
H       -0.20240000       1.84810000      -1.11730000
H       -0.68310000       2.01850000       0.58200000
H       -0.93980000      -0.34090000      -0.09800000
H        0.82600000      -2.44500000       0.08610000
H        3.03260000      -2.69880000       0.84880000
H        3.24680000      -2.00270000      -0.75670000
H        4.68210000      -0.92430000       1.12210000
H        3.68750000       0.22980000       0.22250000
H        2.87700000      -1.05290000       2.88660000
H        3.46680000       0.60860000       2.68870000
H        0.11130000      -1.07750000       2.01040000
