19
Properties=species:S:1:pos:R:3 gdb_53382=T pbc="F F F"
C       -0.17260000       1.39810000       0.12630000
C       -0.08140000      -0.05340000       0.08090000
C       -0.00610000      -1.25460000       0.04060000
C        0.10930000      -2.72140000      -0.02900000
O        0.75590000      -3.26130000       1.10400000
C       -0.27970000      -3.43810000       2.06050000
C       -1.49280000      -3.84970000       1.20530000
C       -2.82780000      -3.30280000       1.68660000
O       -1.16790000      -3.33780000      -0.09710000
H        0.81330000       1.86070000       0.00860000
H       -0.81670000       1.77800000      -0.67420000
H       -0.58950000       1.74090000       1.07950000
H        0.68900000      -3.01750000      -0.91020000
H        0.03860000      -4.20390000       2.77030000
H       -0.47930000      -2.50110000       2.60090000
H       -1.54290000      -4.94380000       1.12380000
H       -2.79220000      -2.21190000       1.75920000
H       -3.62710000      -3.57670000       0.99290000
H       -3.07660000      -3.71320000       2.67170000
