20
Properties=species:S:1:pos:R:3 gdb_114023=T pbc="F F F"
O       -0.14780000       1.62940000       0.29100000
C       -0.07380000       0.22600000       0.49520000
C       -1.36490000      -0.45520000       0.08500000
C       -2.60480000       0.32000000      -0.19450000
N       -1.92720000      -0.41260000      -1.26490000
C       -1.25390000       0.35780000      -2.30750000
C       -2.24250000       0.65620000      -3.44450000
C       -1.54790000       1.21570000      -4.66220000
O       -1.82170000       2.25540000      -5.20430000
H        0.72290000       2.00400000       0.45490000
H        0.76560000      -0.21100000      -0.07000000
H        0.09880000      -0.00620000       1.55810000
H       -1.46220000      -1.43710000       0.54720000
H       -3.57700000      -0.06380000       0.10330000
H       -2.50700000       1.40250000      -0.17860000
H       -0.81460000       1.29250000      -1.93490000
H       -0.43280000      -0.26020000      -2.69510000
H       -2.72240000      -0.28980000      -3.73160000
H       -3.02070000       1.35500000      -3.12590000
H       -0.72200000       0.57200000      -5.05070000
