19
Properties=species:S:1:pos:R:3 gdb_88811=T pbc="F F F"
O       -0.05780000       1.44400000       0.74540000
C        0.06810000       0.14460000       0.24130000
C       -0.59210000      -0.99840000       0.96490000
C       -1.17530000      -0.47810000      -0.33680000
C       -2.47960000       0.26800000      -0.32690000
C       -3.01530000       0.94580000      -1.63150000
C       -4.43600000       0.36360000      -1.36570000
C       -3.79550000      -0.53840000      -0.29540000
O       -4.13650000      -1.54300000       0.25860000
H        0.44210000       1.49330000       1.56650000
H        1.00830000      -0.05130000      -0.27380000
H       -0.11210000      -1.97060000       0.97090000
H       -1.13550000      -0.75520000       1.87190000
H       -1.02360000      -1.10790000      -1.20950000
H       -2.48290000       0.98920000       0.49830000
H       -2.93170000       2.03190000      -1.67330000
H       -2.55840000       0.52110000      -2.52900000
H       -5.12820000       1.08640000      -0.92130000
H       -4.94920000      -0.15040000      -2.18200000
