17
Properties=species:S:1:pos:R:3 gdb_3518=T pbc="F F F"
C        0.15270000       1.55430000       0.05700000
O        1.21040000       0.60740000      -0.09200000
C       -0.13020000       0.11320000       0.01370000
C       -0.47160000      -0.68030000       1.23980000
C       -1.97020000      -1.00130000       1.51770000
C       -1.54070000      -2.41670000       1.98950000
C       -0.19440000      -2.21280000       1.24460000
H        0.12450000       2.07700000       1.01270000
H       -0.04890000       2.17500000      -0.81530000
H       -0.52080000      -0.29320000      -0.92280000
H       -0.00760000      -0.20570000       2.11050000
H       -2.50390000      -0.35930000       2.22260000
H       -2.54510000      -1.04500000       0.58650000
H       -1.40170000      -2.45540000       3.07370000
H       -2.16480000      -3.26190000       1.69090000
H       -0.22820000      -2.62220000       0.22950000
H        0.72220000      -2.55880000       1.72700000
