14
Properties=species:S:1:pos:R:3 gdb_3313=T pbc="F F F"
O       -0.72410000       0.95170000      -0.37190000
C        0.24460000       0.94830000       0.34660000
C        1.40700000       1.89580000       0.22160000
C        1.36720000       3.02520000      -0.83320000
N        1.50320000       4.09900000       0.22010000
C        0.31880000       3.96060000       1.08430000
C        1.43940000       3.01760000       1.27950000
H        0.31860000       0.23990000       1.20440000
H        2.34190000       1.32740000       0.21310000
H        2.23260000       3.03970000      -1.49680000
H        0.44830000       3.09140000      -1.42120000
H        0.22260000       4.76960000       1.80150000
H       -0.61740000       3.61610000       0.65070000
H        2.07990000       3.03100000       2.15500000
