19
Properties=species:S:1:pos:R:3 gdb_106565=T pbc="F F F"
O        0.58300000      -0.01560000       0.89210000
C       -0.13830000       0.12360000      -0.32130000
C       -1.51080000      -0.48310000      -0.20990000
C       -2.69110000      -0.52150000      -1.23160000
C       -3.25190000      -1.23190000       0.03970000
C       -1.87940000      -1.96830000       0.16080000
O       -1.53830000      -3.03010000      -0.68090000
C       -2.58230000      -0.06290000       0.82590000
O       -2.18080000      -0.21950000       2.17050000
H       -0.02960000       0.16100000       1.61630000
H       -0.22270000       1.18210000      -0.62380000
H        0.44610000      -0.38810000      -1.09550000
H       -3.13970000       0.43950000      -1.49970000
H       -2.55920000      -1.12760000      -2.13060000
H       -4.25340000      -1.64210000       0.17670000
H       -1.59900000      -2.27680000       1.16520000
H       -1.78240000      -2.81990000      -1.58760000
H       -3.03290000       0.92300000       0.65670000
H       -2.92450000      -0.01990000       2.74690000
