16
Properties=species:S:1:pos:R:3 gdb_55427=T pbc="F F F"
N       -0.10250000       1.35780000       0.02710000
C        0.07530000       0.01820000      -0.12200000
O        1.12890000      -0.50920000      -0.41870000
C       -1.20480000      -0.80840000       0.05360000
C       -0.97840000      -2.31650000       0.20290000
O       -2.10890000      -2.79580000       0.94040000
C       -2.44360000      -1.82050000       1.90070000
C       -2.03490000      -0.47870000       1.29830000
O       -2.30070000       0.61780000       1.72610000
H        0.72740000       1.93040000       0.02310000
H       -0.91810000       1.68610000       0.52800000
H       -1.85370000      -0.59870000      -0.80750000
H       -0.95000000      -2.85650000      -0.74330000
H       -0.03910000      -2.50460000       0.73990000
H       -3.51470000      -1.86170000       2.11810000
H       -1.89490000      -1.95400000       2.85000000
