20
Properties=species:S:1:pos:R:3 gdb_121300=T pbc="F F F"
C       -0.22840000       1.39520000      -0.66940000
O       -0.24690000      -0.00610000      -0.80960000
C        0.91230000      -0.62580000      -0.30530000
C        0.76960000      -2.12460000      -0.53510000
C        0.73520000      -2.53220000      -2.00280000
C        0.75740000      -4.06050000      -2.09220000
N        1.77480000      -4.66770000      -1.23520000
C        2.23310000      -3.97940000      -0.28050000
O        1.89220000      -2.73110000       0.13140000
H       -0.15370000       1.69770000       0.38670000
H        0.61290000       1.84820000      -1.21670000
H       -1.16550000       1.77670000      -1.08150000
H        1.81780000      -0.25680000      -0.81580000
H        1.03550000      -0.42910000       0.77190000
H       -0.14550000      -2.46950000      -0.03460000
H       -0.15070000      -2.10460000      -2.47890000
H        1.61690000      -2.11730000      -2.50710000
H       -0.22110000      -4.47810000      -1.81890000
H        0.94780000      -4.38440000      -3.12100000
H        3.02340000      -4.36870000       0.35930000
