17
Properties=species:S:1:pos:R:3 gdb_23229=T pbc="F F F"
C        0.02670000       1.48820000      -0.01480000
C       -0.11170000       0.00040000      -0.02160000
C       -0.03470000      -0.87230000       1.20510000
C       -0.56150000      -2.26430000       0.89090000
C        0.11850000      -2.03390000      -0.47690000
N        1.06230000      -0.96330000       0.19340000
C       -0.62680000      -0.87810000      -1.09420000
N       -1.21120000      -0.60250000      -2.18300000
O       -1.34420000      -1.75580000      -2.98790000
H        0.70470000       1.80710000       0.78190000
H        0.42300000       1.84160000      -0.97080000
H       -0.94520000       1.96500000       0.14910000
H        0.14320000      -0.42860000       2.17930000
H       -0.02870000      -3.01760000       1.47710000
H       -1.63700000      -2.46130000       0.90930000
H        0.53450000      -2.83470000      -1.08030000
H       -1.76480000      -1.39960000      -3.77750000
