16
Properties=species:S:1:pos:R:3 gdb_116555=T pbc="F F F"
C        0.06090000       1.54380000      -0.26520000
C       -0.09380000       0.03060000      -0.09080000
N       -1.49270000      -0.34740000      -0.23770000
C       -1.83430000      -1.23930000      -1.05890000
O       -0.97590000      -1.95460000      -1.88410000
C       -1.72940000      -2.84700000      -2.64510000
O       -1.22740000      -3.58290000      -3.43990000
C       -3.14710000      -2.66280000      -2.25400000
C       -3.19980000      -1.71090000      -1.31660000
H        1.09700000       1.84130000      -0.07860000
H       -0.20380000       1.84710000      -1.28260000
H       -0.58950000       2.08070000       0.43050000
H        0.56530000      -0.50810000      -0.78090000
H        0.20070000      -0.24290000       0.93070000
H       -3.94490000      -3.23790000      -2.69880000
H       -4.05420000      -1.30600000      -0.79470000
