21
Properties=species:S:1:pos:R:3 gdb_111764=T pbc="F F F"
C        0.01850000       1.34970000      -0.17090000
O       -0.02940000      -0.02190000       0.18530000
C       -1.29340000      -0.56620000       0.10600000
C       -2.33180000      -0.47050000       1.23640000
C       -2.70380000      -1.96680000       0.97220000
C       -1.63940000      -2.02800000      -0.13360000
C       -1.89280000      -0.97960000      -1.21260000
C       -3.25790000      -0.62300000      -1.75260000
O       -3.73770000      -1.59060000      -2.67840000
H        1.06030000       1.66600000      -0.08520000
H       -0.32350000       1.50810000      -1.20330000
H       -0.59630000       1.96660000       0.49980000
H       -1.84220000      -0.34190000       2.20440000
H       -3.12460000       0.27700000       1.13850000
H       -2.46490000      -2.60860000       1.82230000
H       -3.73630000      -2.16790000       0.66980000
H       -0.96930000      -2.85950000      -0.31490000
H       -1.12730000      -1.03000000      -1.98490000
H       -3.97810000      -0.46950000      -0.93550000
H       -3.20790000       0.31790000      -2.31160000
H       -3.66740000      -2.45000000      -2.24930000
