18
Properties=species:S:1:pos:R:3 gdb_80808=T pbc="F F F"
C        0.03460000       1.50410000      -0.06080000
N        0.02210000       0.04080000       0.00010000
C       -1.12440000      -0.71680000       0.64210000
C       -0.15350000      -1.93050000       0.66880000
C        0.64000000      -0.69320000       1.19110000
C        2.01740000      -0.58270000       1.56340000
C        3.16410000      -0.46460000       1.90890000
C       -0.63980000      -0.40260000       2.07990000
O       -0.90300000       0.86540000       2.60060000
H        1.06230000       1.81380000      -0.27940000
H       -0.58280000       1.80170000      -0.91570000
H       -0.31390000       2.03100000       0.83000000
H       -2.13870000      -0.67530000       0.24620000
H       -0.35390000      -2.73370000       1.37900000
H        0.16430000      -2.27660000      -0.31180000
H        4.18110000      -0.37030000       2.20020000
H       -0.84670000      -1.18300000       2.82710000
H       -0.39110000       0.97020000       3.40950000
