21
Properties=species:S:1:pos:R:3 gdb_62831=T pbc="F F F"
C       -0.10280000       1.49170000       0.02620000
C        0.03260000      -0.03470000      -0.01920000
C       -1.30840000      -0.59750000      -0.51060000
C        1.30520000      -0.68700000      -0.62290000
C        2.15770000      -0.11150000       0.60790000
C        0.84100000      -0.74290000       1.15280000
O        0.17910000      -1.43220000       2.21810000
C       -0.00840000      -2.55260000       1.25950000
C        1.09990000      -1.96330000       0.30830000
H        0.71370000       2.00890000       0.53040000
H       -0.18290000       1.90130000      -0.98780000
H       -1.02550000       1.75890000       0.55290000
H       -1.68710000       0.03390000      -1.32200000
H       -1.23790000      -1.61270000      -0.90190000
H       -2.05950000      -0.57780000       0.28710000
H        1.62550000      -0.65470000      -1.66700000
H        3.06770000      -0.66500000       0.84320000
H        2.33060000       0.96370000       0.63560000
H        0.31030000      -3.49430000       1.71350000
H       -1.04760000      -2.62040000       0.94200000
H        2.04220000      -2.47340000       0.51340000
