21
Properties=species:S:1:pos:R:3 gdb_56021=T pbc="F F F"
C        0.90310000       0.80520000       0.18770000
C       -0.33320000      -0.06210000       0.09130000
O       -1.14590000      -0.14830000       0.98330000
C       -0.49550000      -0.88230000      -1.18960000
C       -0.01260000      -2.31940000      -0.96820000
C       -0.15830000      -3.25670000      -2.17130000
C        0.94240000      -4.29030000      -1.89500000
C        2.04290000      -3.42630000      -1.25910000
O        1.38910000      -2.29820000      -0.67220000
H        1.78560000       0.17910000       0.01870000
H        0.89260000       1.56680000      -0.60110000
H        0.95400000       1.28710000       1.16480000
H       -1.56070000      -0.90730000      -1.43920000
H        0.06240000      -0.44270000      -2.02280000
H       -0.55680000      -2.73170000      -0.10390000
H       -1.15780000      -3.69150000      -2.24580000
H        0.04710000      -2.71060000      -3.09950000
H        0.58600000      -5.04220000      -1.18340000
H        1.28480000      -4.81310000      -2.79110000
H        2.60640000      -3.96070000      -0.48570000
H        2.75910000      -3.06910000      -2.01210000
