18
Properties=species:S:1:pos:R:3 gdb_67445=T pbc="F F F"
C       -0.03260000       1.52850000      -0.00720000
C        0.01470000       0.02960000      -0.00300000
C        0.46760000      -0.99950000      -1.05270000
C        1.23980000      -1.79330000      -0.00200000
C        0.64970000      -0.84590000       1.08830000
O       -0.29120000      -1.47480000       1.97220000
C       -1.34910000      -2.03120000       1.33060000
N       -1.70740000      -1.86730000       0.12590000
C       -0.99000000      -0.88410000      -0.64090000
H        0.96330000       1.96650000       0.13040000
H       -0.43350000       1.90600000      -0.95350000
H       -0.67590000       1.90570000       0.79670000
H        0.77460000      -0.82310000      -2.07690000
H        0.99480000      -2.85370000       0.10690000
H        2.32310000      -1.68370000      -0.09280000
H        1.37830000      -0.35780000       1.73450000
H       -1.90760000      -2.68010000       2.00190000
H       -1.61270000      -0.42570000      -1.40340000
