19
Properties=species:S:1:pos:R:3 gdb_97223=T pbc="F F F"
C        0.44940000       1.34290000       0.14920000
N        0.42310000      -0.10440000       0.02200000
C        0.40390000      -0.62850000      -1.13440000
C        0.45260000       0.12620000      -2.46410000
O        0.87620000      -0.65100000      -3.57190000
C        1.80870000      -1.65650000      -3.18830000
C        1.07500000      -2.65600000      -2.32650000
C        1.41890000      -2.87970000      -0.88900000
N        0.29860000      -2.02460000      -1.26000000
H        1.35440000       1.79260000      -0.28740000
H       -0.41650000       1.82820000      -0.32390000
H        0.43380000       1.60540000       1.21010000
H       -0.54100000       0.51870000      -2.71090000
H        1.12270000       0.99050000      -2.33700000
H        2.18050000      -2.10410000      -4.11250000
H        2.66130000      -1.21260000      -2.64960000
H        0.53600000      -3.43390000      -2.86330000
H        1.15260000      -3.81890000      -0.41400000
H        2.30060000      -2.39030000      -0.48320000
