13
Properties=species:S:1:pos:R:3 gdb_130593=T pbc="F F F"
O        0.06400000      -0.03440000       0.00150000
C       -0.00530000       1.16100000       0.00930000
C       -1.20390000       2.06830000       0.03140000
C       -0.80280000       3.35270000       0.03280000
C        0.66130000       3.37830000       0.01180000
C        1.78970000       4.15760000      -0.00040000
C        2.86180000       3.20460000      -0.02110000
N        2.43580000       1.95130000      -0.02180000
N        1.08830000       2.08140000      -0.00140000
H       -2.20940000       1.67640000       0.04360000
H       -1.42950000       4.23330000       0.04660000
H        1.86350000       5.23280000       0.00440000
H        3.92300000       3.40820000      -0.03540000
