18
Properties=species:S:1:pos:R:3 gdb_75948=T pbc="F F F"
C       -0.00670000       1.45300000       0.00620000
N        0.00650000      -0.00860000      -0.02430000
C       -1.21790000      -0.67820000      -0.03850000
O       -2.27270000      -0.07970000      -0.03560000
C       -1.09710000      -2.18840000      -0.03050000
C        0.14960000      -2.63900000      -0.79330000
N        1.34620000      -1.96770000      -0.31020000
C        1.21690000      -0.73570000      -0.00770000
N        2.33430000       0.02830000       0.30180000
H        0.76720000       1.84540000      -0.65460000
H       -0.99220000       1.77670000      -0.32480000
H        0.15500000       1.84190000       1.01950000
H       -1.02150000      -2.50850000       1.01760000
H       -2.02350000      -2.60080000      -0.43550000
H        0.28700000      -3.71930000      -0.68980000
H        0.01850000      -2.44320000      -1.86970000
H        3.14940000      -0.56160000       0.39860000
H        2.22970000       0.68090000       1.06600000
