19
Properties=species:S:1:pos:R:3 gdb_119240=T pbc="F F F"
O        0.00060000       1.50220000       0.26020000
C       -0.03870000       0.08760000       0.36510000
C       -1.28720000      -0.50430000      -0.30000000
C       -1.37730000      -2.01220000      -0.16980000
C       -1.71080000      -2.64290000       1.19120000
C       -2.72680000      -2.67740000       0.10220000
O       -3.83300000      -1.83250000       0.13160000
C       -0.47090000      -2.80860000      -1.03640000
O        0.32010000      -2.34260000      -1.82000000
H        0.11500000       1.72050000      -0.67020000
H        0.86460000      -0.37270000      -0.05790000
H       -0.04720000      -0.12900000       1.43910000
H       -2.17970000      -0.04210000       0.12760000
H       -1.26950000      -0.25490000      -1.36800000
H       -1.21070000      -3.56320000       1.47540000
H       -1.86950000      -1.93690000       1.99910000
H       -2.89860000      -3.63350000      -0.39310000
H       -4.41300000      -2.12280000       0.84340000
H       -0.57450000      -3.91370000      -0.91940000
