17
Properties=species:S:1:pos:R:3 gdb_106933=T pbc="F F F"
C        0.30110000       1.50590000       0.18790000
C       -0.13910000       0.05890000      -0.07490000
C        0.46740000      -0.51450000      -1.32770000
C        0.14590000       0.04770000      -2.70540000
O        0.44460000      -0.99510000      -3.64880000
C        0.72280000      -2.17870000      -3.02940000
O        0.83460000      -3.21190000      -3.61960000
C        0.83440000      -1.91880000      -1.54920000
O        1.83930000      -0.92410000      -1.27320000
H        1.39030000       1.57000000       0.26560000
H       -0.02180000       2.17920000      -0.61300000
H       -0.12930000       1.87510000       1.12260000
H        0.15330000      -0.57720000       0.76670000
H       -1.23180000       0.00410000      -0.15420000
H       -0.91420000       0.30930000      -2.79800000
H        0.75720000       0.91940000      -2.95350000
H        0.72900000      -2.72960000      -0.83750000
