17
Properties=species:S:1:pos:R:3 gdb_2261=T pbc="F F F"
C       -0.04550000       1.52970000       0.00030000
C        0.04960000       0.03080000       0.00180000
C       -0.84060000      -0.85130000       0.83640000
C        0.64730000      -0.94440000       1.02930000
C        1.24220000      -1.81160000      -0.08290000
C        0.66100000      -0.79510000      -1.12820000
O       -0.28240000      -1.25050000      -2.07580000
H        0.90580000       1.99310000      -0.28680000
H       -0.81010000       1.87550000      -0.70560000
H       -0.31590000       1.91010000       0.99090000
H       -1.38380000      -0.32980000       1.61860000
H       -1.38770000      -1.67270000       0.38160000
H        1.12450000      -0.71330000       1.97420000
H        2.33420000      -1.84980000      -0.09340000
H        0.84590000      -2.83040000      -0.15140000
H        1.47270000      -0.24000000      -1.62020000
H        0.18200000      -1.77770000      -2.73370000
