19
Properties=species:S:1:pos:R:3 gdb_99186=T pbc="F F F"
O        0.34230000       0.95690000      -0.78290000
C       -0.00270000       0.05660000       0.22550000
C       -1.36090000      -0.58150000      -0.03850000
O       -1.99860000      -0.22540000      -1.00960000
C       -1.85640000      -1.63970000       0.92130000
C       -3.30730000      -2.03120000       0.68560000
C       -3.64780000      -2.93010000      -0.52120000
C       -4.21480000      -3.89240000       0.54100000
O       -3.73560000      -3.05180000       1.61600000
H       -0.42550000       0.97410000      -1.37700000
H        0.74860000      -0.74450000       0.32060000
H       -0.04950000       0.55000000       1.21190000
H       -1.20880000      -2.52260000       0.82750000
H       -1.72540000      -1.28840000       1.95310000
H       -3.94580000      -1.14120000       0.75760000
H       -4.35460000      -2.51720000      -1.24030000
H       -2.77410000      -3.30720000      -1.05640000
H       -5.30850000      -3.97980000       0.55240000
H       -3.77940000      -4.89710000       0.58360000
