21
Properties=species:S:1:pos:R:3 gdb_96084=T pbc="F F F"
C       -0.08480000       1.51040000      -0.00010000
C        0.05450000      -0.00570000       0.02230000
O        0.72100000      -0.38910000      -1.17670000
C        0.84980000      -1.79640000      -1.27980000
C        1.86180000      -2.35660000      -0.26990000
C        1.70570000      -1.70750000       1.10570000
O        1.67750000      -2.59440000       2.19520000
C        2.30150000      -0.33960000       1.34010000
C        0.79860000      -0.51800000       1.24450000
H        0.90020000       1.98560000       0.01180000
H       -0.61400000       1.82910000      -0.90220000
H       -0.64520000       1.85380000       0.87480000
H       -0.95300000      -0.46000000       0.01940000
H       -0.13380000      -2.26890000      -1.12290000
H        1.16310000      -2.00570000      -2.30660000
H        1.69740000      -3.43330000      -0.15880000
H        2.88220000      -2.21600000      -0.64570000
H        2.56930000      -2.94000000       2.31500000
H        2.71700000      -0.13930000       2.32130000
H        2.80770000       0.13950000       0.50790000
H        0.24910000      -0.46040000       2.17900000
