21
Properties=species:S:1:pos:R:3 gdb_78431=T pbc="F F F"
C       -0.04590000       1.46060000       0.02570000
C        0.07040000      -0.04940000      -0.00210000
C        0.75060000      -0.66260000      -1.19680000
C        1.44180000      -0.63870000       0.17380000
C        1.40070000      -2.18990000       0.22300000
C        0.41670000      -2.87990000       1.12460000
C       -0.67170000      -3.27920000       0.46140000
C       -0.63700000      -2.94690000      -1.01840000
C        0.71000000      -2.20310000      -1.18380000
H        0.82900000       1.93420000      -0.43310000
H       -0.93180000       1.80040000      -0.52210000
H       -0.12430000       1.83320000       1.05290000
H       -0.77370000      -0.56950000       0.44550000
H        0.97350000      -0.06270000      -2.07270000
H        2.27920000      -0.03220000       0.50040000
H        2.40430000      -2.62410000       0.25330000
H        0.57620000      -3.01630000       2.18920000
H       -1.51600000      -3.79150000       0.91300000
H       -0.69130000      -3.85500000      -1.63250000
H       -1.49270000      -2.32540000      -1.31450000
H        1.33270000      -2.62970000      -1.97180000
