17
Properties=species:S:1:pos:R:3 gdb_10747=T pbc="F F F"
C        0.16660000       1.43250000       0.09070000
C       -0.03650000      -0.08550000       0.00970000
O        0.53230000      -0.62340000       1.19760000
C       -1.48910000      -0.39400000      -0.02020000
N       -2.61320000      -0.66190000      -0.04230000
C        0.60810000      -0.65710000      -1.25640000
C        2.08780000      -0.92680000      -1.28740000
C        1.10850000      -2.07490000      -1.31750000
H        1.23840000       1.63710000       0.14400000
H       -0.24700000       1.92470000      -0.79250000
H       -0.31850000       1.83260000       0.98330000
H        0.24340000      -1.53790000       1.29160000
H        0.15970000      -0.26810000      -2.16560000
H        2.63480000      -0.67980000      -2.18990000
H        2.63570000      -0.77840000      -0.36410000
H        1.04400000      -2.69070000      -0.42670000
H        0.96430000      -2.62290000      -2.24130000
