16
Properties=species:S:1:pos:R:3 gdb_61114=T pbc="F F F"
C        0.07990000       1.64950000      -0.29360000
C        0.01650000       0.11010000      -0.12080000
C        0.65480000      -0.35310000       1.21720000
C        2.04890000       0.03950000       1.35820000
C        3.19900000       0.37100000       1.46180000
C       -1.47610000      -0.28380000      -0.15090000
O       -2.08330000      -0.65980000       0.81220000
C        0.65980000      -0.53930000      -1.26920000
N        1.12370000      -1.06070000      -2.19040000
H        1.12170000       1.97410000      -0.31180000
H       -0.40110000       1.96030000      -1.22450000
H       -0.42750000       2.13240000       0.54630000
H        0.04930000       0.06570000       2.02750000
H        0.55700000      -1.44080000       1.29800000
H        4.21920000       0.64940000       1.56130000
H       -1.95680000      -0.15530000      -1.14320000
