21
Properties=species:S:1:pos:R:3 gdb_95360=T pbc="F F F"
C       -0.16920000       1.52730000       0.07670000
C        0.02090000       0.01330000       0.01390000
O        0.78510000      -0.35860000      -1.15680000
C        2.04440000      -0.92660000      -0.77700000
C        1.79470000      -1.56210000       0.59460000
C        2.87840000      -1.61030000       1.68860000
C        2.13050000      -1.17710000       2.98550000
C        0.98070000      -0.34180000       2.44950000
C        0.79710000      -0.57440000       1.15350000
H        0.79470000       2.03390000       0.17690000
H       -0.65970000       1.88380000      -0.83300000
H       -0.79350000       1.79830000       0.93500000
H       -0.96330000      -0.46710000      -0.09080000
H        2.33390000      -1.62840000      -1.56450000
H        2.82050000      -0.14730000      -0.70310000
H        1.32490000      -2.54630000       0.45220000
H        3.36280000      -2.58560000       1.78190000
H        3.65850000      -0.87420000       1.46180000
H        1.76400000      -2.04750000       3.54890000
H        2.77420000      -0.61730000       3.67330000
H        0.41360000       0.34650000       3.06640000
