16
Properties=species:S:1:pos:R:3 gdb_79372=T pbc="F F F"
C       -0.11290000       1.63720000      -0.00140000
C       -0.04560000       0.11790000      -0.00100000
C        1.14350000      -0.57650000      -0.70740000
C        2.09370000      -0.37740000       0.51880000
O        2.48740000      -1.78310000       0.60050000
C        1.07590000      -1.81450000       0.25370000
C        0.39550000      -3.06860000       0.07340000
N       -0.18070000      -4.05910000      -0.07860000
C        0.68480000      -0.59640000       1.16150000
H        0.85500000       2.08870000       0.24120000
H       -0.42020000       2.01430000      -0.98240000
H       -0.84150000       1.99610000       0.73290000
H       -1.01940000      -0.32010000      -0.24470000
H        1.42750000      -0.60740000      -1.75880000
H        2.85040000       0.37800000       0.71260000
H        0.44990000      -0.64970000       2.22410000
