19
Properties=species:S:1:pos:R:3 gdb_32574=T pbc="F F F"
C       -0.00430000       1.59980000      -0.02670000
C       -0.02410000       0.07010000       0.03250000
N       -1.36990000      -0.48300000       0.05290000
C       -2.15020000      -0.83330000       1.16400000
C       -1.65810000      -0.74200000       2.56690000
C       -3.33950000      -1.25080000       0.64000000
N       -3.34080000      -1.17150000      -0.74520000
C       -2.15650000      -0.70960000      -1.03290000
O       -1.66980000      -0.45110000      -2.26400000
H        1.02770000       1.96420000      -0.03820000
H       -0.50400000       1.95340000      -0.93250000
H       -0.51290000       2.03460000       0.83880000
H        0.49330000      -0.34630000      -0.83630000
H        0.49820000      -0.28770000       0.92400000
H       -1.38220000       0.28030000       2.85550000
H       -2.44860000      -1.07200000       3.24540000
H       -0.78290000      -1.37880000       2.75040000
H       -4.20300000      -1.61070000       1.17880000
H       -2.36920000      -0.69970000      -2.88120000
