19
Properties=species:S:1:pos:R:3 gdb_52738=T pbc="F F F"
C       -0.01070000       1.53690000      -0.07160000
C        0.02700000       0.08240000      -0.04560000
C        0.07800000      -1.12090000      -0.03620000
C        0.07800000      -2.58210000      -0.02800000
C       -1.36230000      -3.01190000       0.26650000
O       -2.06070000      -3.65060000      -0.48180000
C        0.65590000      -3.21200000      -1.32940000
C        0.91250000      -4.71490000      -1.17120000
O       -0.15320000      -2.92090000      -2.44970000
H        0.71190000       1.96860000       0.62940000
H        0.22400000       1.91800000      -1.07130000
H       -1.00350000       1.91150000       0.20070000
H        0.68070000      -2.92820000       0.82680000
H       -1.74920000      -2.65600000       1.24440000
H        1.61050000      -2.71080000      -1.52300000
H       -0.01250000      -5.25510000      -0.95010000
H        1.32330000      -5.10910000      -2.10410000
H        1.63060000      -4.91400000      -0.36800000
H       -1.01340000      -3.32430000      -2.27320000
