18
Properties=species:S:1:pos:R:3 gdb_46541=T pbc="F F F"
O       -0.05040000       0.16830000      -0.88710000
C       -0.05330000       1.25360000      -0.35360000
C       -1.16510000       1.87690000       0.50010000
C       -0.77880000       3.35260000       0.62660000
C       -1.52480000       4.36420000      -0.28200000
O       -1.91380000       5.16280000       0.85190000
C       -1.34210000       4.21600000       1.77420000
C        0.75570000       3.33000000       0.46780000
N        0.96610000       2.17290000      -0.38270000
H       -2.14630000       1.70540000       0.05330000
H       -1.15720000       1.37420000       1.47570000
H       -0.90770000       4.92720000      -0.99330000
H       -2.39450000       3.95310000      -0.81140000
H       -2.10730000       3.72420000       2.38960000
H       -0.59880000       4.68040000       2.43570000
H        1.13770000       4.24750000       0.00860000
H        1.24620000       3.21640000       1.44730000
H        1.86570000       1.91450000      -0.75670000
