16
Properties=species:S:1:pos:R:3 gdb_33939=T pbc="F F F"
C        0.10770000      -1.16830000       0.08650000
C        0.07020000       0.03210000       0.03040000
C       -0.02750000       1.46230000      -0.01960000
C        0.26280000       2.26060000      -1.25350000
N        1.21920000       2.28200000      -0.14870000
C        1.11850000       3.41450000       0.80000000
C       -0.22490000       3.32980000       1.50570000
O       -1.35460000       3.45420000       0.62920000
C       -0.92690000       2.14160000       1.00130000
H        0.15720000      -2.22820000       0.12890000
H        0.61810000       1.74130000      -2.13900000
H       -0.37050000       3.12500000      -1.42530000
H        1.92420000       3.31220000       1.53560000
H        1.25650000       4.36610000       0.27630000
H       -0.35840000       3.73590000       2.50620000
H       -1.62900000       1.54640000       1.57580000
