16
Properties=species:S:1:pos:R:3 gdb_54014=T pbc="F F F"
C       -0.43710000       1.12470000      -0.08620000
C       -0.07430000      -0.34500000      -0.06960000
N        0.12770000      -0.90970000       1.04010000
N       -0.03250000      -1.00910000      -1.37330000
C        0.21450000      -0.22890000      -2.49450000
O        0.22810000      -0.59360000      -3.65320000
C       -0.21440000      -2.45180000      -1.44890000
N       -0.40600000      -2.93420000      -2.69220000
O       -0.21560000      -3.14360000      -0.45100000
H        0.39380000       1.76070000      -0.40980000
H       -1.29450000       1.33430000      -0.73300000
H       -0.67970000       1.39570000       0.94060000
H        0.32570000      -1.90270000       0.92320000
H        0.43040000       0.81330000      -2.23580000
H       -0.26740000      -2.33920000      -3.49950000
H       -0.44960000      -3.93700000      -2.76340000
