17
Properties=species:S:1:pos:R:3 gdb_64890=T pbc="F F F"
C        0.01930000       1.50190000      -0.02310000
C        0.02380000      -0.01840000      -0.02220000
C        1.33390000      -0.75520000      -0.22700000
C        0.75150000      -0.74840000       1.16360000
N        1.44230000      -0.04900000       2.20860000
C        0.13450000      -1.97070000       1.63640000
N       -0.36630000      -2.93160000       2.03930000
C       -1.16700000      -0.62270000      -0.55050000
C       -2.17750000      -1.10260000      -0.99180000
H        0.91620000       1.90830000       0.45020000
H       -0.02250000       1.87650000      -1.04990000
H       -0.85480000       1.88540000       0.51100000
H        1.31570000      -1.68450000      -0.78200000
H        2.22630000      -0.15430000      -0.37530000
H        2.14160000       0.58700000       1.85070000
H        0.80900000       0.45900000       2.81620000
H       -3.06610000      -1.54450000      -1.36980000
