21
Properties=species:S:1:pos:R:3 gdb_86707=T pbc="F F F"
C        0.02880000       1.57570000      -0.04650000
C        0.05400000       0.04720000       0.02270000
C        0.76830000      -0.61890000      -1.18000000
C        1.23950000      -2.00760000      -0.67250000
C        2.46020000      -2.50270000      -1.41310000
O        2.52090000      -3.52000000      -2.05500000
C        1.49180000      -1.78810000       0.82020000
C        2.26820000      -0.55770000       1.23850000
C        0.76100000      -0.53420000       1.24350000
H        1.04500000       1.98500000      -0.04150000
H       -0.46960000       1.92340000      -0.95760000
H       -0.50620000       2.00200000       0.80840000
H       -0.98270000      -0.31570000       0.04690000
H        0.12450000      -0.70250000      -2.05890000
H        1.63280000      -0.01490000      -1.48280000
H        0.44990000      -2.75450000      -0.80400000
H        3.34630000      -1.83060000      -1.31930000
H        1.53530000      -2.66290000       1.45900000
H        2.76580000      -0.60310000       2.20080000
H        2.81120000       0.01900000       0.49740000
H        0.25260000      -0.48730000       2.20070000
