25
Properties=species:S:1:pos:R:3 gdb_101813=T pbc="F F F"
C        0.08470000       1.55760000       0.10630000
C        0.02980000       0.03000000       0.07090000
O        0.67930000      -0.53270000       1.21130000
C       -1.40290000      -0.49970000      -0.08270000
C       -1.46890000      -2.02630000      -0.20010000
C       -2.89050000      -2.61220000      -0.18140000
C       -3.74440000      -2.16280000      -1.37450000
C       -2.82100000      -4.13900000      -0.11160000
O       -4.13730000      -4.64770000       0.05940000
H        1.11510000       1.89810000       0.23980000
H       -0.30920000       1.99130000      -0.81860000
H       -0.51540000       1.94870000       0.93790000
H        0.62840000      -0.32720000      -0.77730000
H        0.21440000      -0.21520000       1.99390000
H       -1.99170000      -0.16850000       0.78710000
H       -1.85950000      -0.02370000      -0.95850000
H       -0.96170000      -2.33650000      -1.12540000
H       -0.88600000      -2.45260000       0.62450000
H       -3.38780000      -2.28180000       0.74210000
H       -4.71330000      -2.66650000      -1.35750000
H       -3.92070000      -1.08340000      -1.36490000
H       -3.24880000      -2.41240000      -2.32140000
H       -2.36320000      -4.52820000      -1.03690000
H       -2.17220000      -4.43930000       0.72660000
H       -4.09490000      -5.60750000       0.03090000
