12
Properties=species:S:1:pos:R:3 gdb_130840=T pbc="F F F"
O        0.07930000      -0.06490000      -0.00180000
C        0.00420000       1.14400000       0.00950000
C        1.19440000       1.99680000       0.00350000
C        1.37650000       3.38240000       0.01340000
C        2.78080000       3.55600000      -0.00110000
N        3.41230000       2.38510000      -0.01810000
N        2.43930000       1.46970000      -0.01510000
C        0.36920000       4.37520000       0.03330000
N       -0.45430000       5.18920000       0.04960000
H       -0.96210000       1.68190000       0.02500000
H        3.33670000       4.48050000       0.00060000
H        2.65340000       0.48320000      -0.02610000
