16
Properties=species:S:1:pos:R:3 gdb_11722=T pbc="F F F"
C       -0.05430000       1.58570000       0.13270000
C        0.04480000       0.07270000       0.00420000
C        1.08710000      -0.53010000      -1.01120000
C        1.75050000      -1.25890000       0.15630000
O        2.13830000      -0.27840000       1.13480000
C        0.78000000      -0.67750000       1.13340000
C        2.39480000      -2.58150000       0.21760000
O        2.45240000      -3.34370000      -0.71670000
H        0.92760000       2.01510000       0.35060000
H       -0.42400000       2.03120000      -0.79650000
H       -0.73990000       1.87230000       0.93730000
H       -0.93980000      -0.37470000      -0.16110000
H        0.64100000      -1.21450000      -1.73380000
H        1.73400000       0.18350000      -1.52610000
H        0.38590000      -1.09740000       2.05340000
H        2.81310000      -2.82540000       1.21840000
