17
Properties=species:S:1:pos:R:3 gdb_23157=T pbc="F F F"
C       -0.06780000       1.48240000       0.12750000
N       -0.02190000       0.03700000       0.09850000
C       -1.26310000      -0.71730000       0.40230000
C       -0.42970000      -1.62610000       1.27330000
N       -0.53160000      -2.74670000       1.84150000
O       -1.80700000      -3.29910000       1.64220000
C        0.73570000      -0.64770000       1.19000000
C        2.06880000      -1.11900000       0.85790000
C        3.17730000      -1.50070000       0.59580000
H        0.93950000       1.88260000      -0.02350000
H       -0.69950000       1.84610000      -0.68900000
H       -0.46420000       1.88960000       1.07730000
H       -2.01240000      -0.15190000       0.98100000
H       -1.75410000      -1.16810000      -0.46590000
H       -1.73560000      -4.14550000       2.09690000
H        0.77980000      -0.03700000       2.11040000
H        4.15200000      -1.84770000       0.35660000
