19
Properties=species:S:1:pos:R:3 gdb_94644=T pbc="F F F"
O        0.15590000       1.36650000      -0.24120000
C        0.09930000       0.00040000       0.08630000
C       -0.17030000      -0.38300000       1.55980000
O       -1.37660000      -1.08380000       1.19470000
C       -1.27910000      -0.64820000      -0.18710000
C       -2.41500000       0.27780000      -0.59000000
C       -3.77720000      -0.43360000      -0.46140000
C       -4.90080000       0.42620000      -0.81010000
C       -5.81130000       1.15470000      -1.10240000
H        1.05310000       1.68130000      -0.09650000
H        0.93190000      -0.55390000      -0.36330000
H        0.55770000      -1.04360000       2.04540000
H       -0.36810000       0.48440000       2.20270000
H       -1.24440000      -1.51970000      -0.85540000
H       -2.40530000       1.17320000       0.03670000
H       -2.25920000       0.61040000      -1.62200000
H       -3.78860000      -1.32710000      -1.10020000
H       -3.88730000      -0.79250000       0.56860000
H       -6.62360000       1.78910000      -1.35660000
