15
Properties=species:S:1:pos:R:3 gdb_31363=T pbc="F F F"
C       -0.07680000       1.47190000       0.09850000
N        0.09520000       0.03220000       0.03090000
C        0.63440000      -0.73880000       0.99890000
N        0.59660000      -2.01750000       0.97020000
C        1.21880000      -2.72410000       1.99700000
N        1.21270000      -3.99710000       2.00010000
N        1.85680000      -1.98150000       3.04350000
C        1.82240000      -0.72410000       2.97210000
O        1.23060000       0.01860000       1.98110000
H        0.84790000       1.95020000       0.42590000
H       -0.31570000       1.83610000      -0.90230000
H       -0.88300000       1.77110000       0.78050000
H       -0.42020000      -0.49530000      -0.65560000
H        1.71400000      -4.31550000       2.83000000
H        2.27280000      -0.07010000       3.71310000
