16
Properties=species:S:1:pos:R:3 gdb_61138=T pbc="F F F"
C        0.12740000       1.61870000       0.00380000
C        0.00190000       0.08190000       0.02700000
C        0.61850000      -0.57540000      -1.24250000
C       -0.05410000      -0.14730000      -2.46650000
N       -0.60230000       0.20300000      -3.42150000
C        0.62420000      -0.48050000       1.22000000
C        1.16920000      -0.94920000       2.19080000
C        1.78980000      -1.49260000       3.37400000
O        2.75550000      -2.21980000       3.36350000
H        1.17870000       1.92050000      -0.00860000
H       -0.36260000       2.01990000      -0.88700000
H       -0.34310000       2.05380000       0.88820000
H       -1.06500000      -0.17550000       0.04780000
H        1.68170000      -0.32090000      -1.30860000
H        0.55490000      -1.66510000      -1.16550000
H        1.30400000      -1.18640000       4.32240000
