18
Properties=species:S:1:pos:R:3 gdb_108646=T pbc="F F F"
C        0.18370000       1.52610000       0.04640000
C        0.00560000       0.04310000       0.03810000
C       -1.09200000      -0.72580000      -0.01780000
C       -2.55260000      -0.41770000      -0.09300000
O       -2.78300000       0.98140000      -0.10570000
C       -0.67830000      -2.13900000       0.00420000
N       -1.45450000      -3.14080000      -0.03500000
O        0.68890000      -2.19830000       0.07450000
C        1.20550000      -0.86820000       0.10020000
H        0.80390000       1.84320000      -0.80200000
H       -0.77340000       2.03970000      -0.00310000
H        0.71380000       1.84420000       0.95340000
H       -2.95950000      -0.90510000      -0.99300000
H       -3.04960000      -0.90400000       0.76120000
H       -3.73250000       1.12170000      -0.15430000
H       -0.92380000      -4.01210000      -0.00730000
H        1.88340000      -0.72770000      -0.75320000
H        1.79250000      -0.72660000       1.01830000
