22
Properties=species:S:1:pos:R:3 gdb_57647=T pbc="F F F"
C       -0.01560000       1.64150000       0.22370000
C        0.04330000       0.10730000       0.07270000
C        0.81850000      -0.49930000       1.26270000
C       -1.35730000      -0.51880000      -0.04830000
N       -2.17030000      -0.26890000       1.13910000
C       -3.17640000       0.78680000       1.04790000
C       -3.57540000      -0.64580000       1.03810000
C        0.84310000      -0.19610000      -1.18550000
O        0.45800000      -0.83930000      -2.12810000
H        0.99090000       2.07370000       0.22070000
H       -0.58390000       2.10430000      -0.58990000
H       -0.49160000       1.90680000       1.17090000
H        0.27290000      -0.30200000       2.18810000
H        0.92310000      -1.58390000       1.15580000
H        1.82080000      -0.06620000       1.34610000
H       -1.84310000      -0.15730000      -0.97020000
H       -1.24700000      -1.60250000      -0.16060000
H       -3.31190000       1.39380000       1.93870000
H       -3.26060000       1.33070000       0.10820000
H       -3.92530000      -1.05560000       0.09170000
H       -4.00650000      -1.10770000       1.92170000
H        1.87180000       0.23840000      -1.17320000
