17
Properties=species:S:1:pos:R:3 gdb_108907=T pbc="F F F"
O       -0.03870000       1.41050000       0.16060000
C       -0.00910000       0.00610000      -0.00270000
C       -1.40420000      -0.51950000      -0.03150000
C       -2.54020000       0.16570000       0.05600000
C       -3.70240000      -0.80090000       0.02200000
O       -3.13460000      -2.06240000      -0.26190000
C       -1.71570000      -1.98950000      -0.16170000
C       -4.43030000      -0.78560000       1.36900000
O       -4.37280000      -1.66090000       2.18800000
H        0.86760000       1.73060000       0.17900000
H        0.50580000      -0.28270000      -0.93620000
H        0.54330000      -0.48700000       0.81700000
H       -2.63790000       1.23510000       0.17200000
H       -4.44350000      -0.54480000      -0.75460000
H       -1.27000000      -2.44430000      -1.05870000
H       -1.36030000      -2.56290000       0.70920000
H       -5.02140000       0.14620000       1.53990000
