16
Properties=species:S:1:pos:R:3 gdb_16682=T pbc="F F F"
C       -0.17420000       1.53730000       0.00410000
C        0.01920000       0.02850000       0.02980000
C        1.15870000      -0.60900000      -0.81230000
C        2.15580000      -0.22860000       0.30200000
C        0.90950000      -0.58450000       1.18610000
C        0.77360000      -2.05250000       0.80930000
O        0.56270000      -3.03960000       1.44530000
O        0.95020000      -2.03260000      -0.55830000
H        0.75080000       2.09710000       0.16200000
H       -0.59270000       1.84960000      -0.95880000
H       -0.88140000       1.83920000       0.78310000
H       -0.94400000      -0.47140000      -0.11260000
H        1.31480000      -0.45050000      -1.87740000
H        3.04680000      -0.85200000       0.39950000
H        2.42150000       0.82700000       0.33040000
H        0.80740000      -0.33320000       2.23850000
