17
Properties=species:S:1:pos:R:3 gdb_108037=T pbc="F F F"
C        0.16140000       1.31440000       0.16100000
O       -0.16840000      -0.03550000      -0.14190000
C        0.51110000      -0.53860000      -1.21860000
C        0.16520000      -0.35970000      -2.68640000
N        0.88430000      -1.69140000      -2.97870000
C        2.25980000      -1.27130000      -3.19100000
N        2.90950000      -0.88460000      -2.16860000
C        1.97530000      -1.05700000      -1.06780000
C        0.86570000      -1.96950000      -1.48600000
H        1.23240000       1.42190000       0.37690000
H       -0.10090000       1.98880000      -0.66520000
H       -0.41840000       1.59000000       1.04370000
H       -0.90290000      -0.48560000      -2.87280000
H        0.54950000       0.50010000      -3.24580000
H        2.64260000      -1.23470000      -4.20560000
H        2.36610000      -1.06270000      -0.05860000
H        0.54440000      -2.91920000      -1.07670000
