17
Properties=species:S:1:pos:R:3 gdb_21004=T pbc="F F F"
C       -0.04940000       1.39130000       0.07910000
N        0.04580000      -0.04650000      -0.01310000
C        0.10010000      -0.80500000      -1.14610000
C        0.06300000      -2.12450000      -0.74000000
N        0.03370000      -3.29140000      -1.52610000
C       -0.02130000      -2.06340000       0.67440000
C       -0.08200000      -3.20730000       1.63480000
N       -0.03310000      -0.79710000       1.09680000
H        0.60030000       1.85740000      -0.66690000
H       -1.07660000       1.74210000      -0.07750000
H        0.27650000       1.68650000       1.07690000
H        0.16180000      -0.35770000      -2.12580000
H        0.42790000      -3.15100000      -2.44760000
H        0.51950000      -4.06130000      -1.08220000
H        0.81610000      -3.83700000       1.58230000
H       -0.16640000      -2.82940000       2.65590000
H       -0.94250000      -3.85640000       1.43350000
