19
Properties=species:S:1:pos:R:3 gdb_6880=T pbc="F F F"
C       -0.25530000       1.47940000       0.01520000
N        0.03290000       0.05290000       0.08240000
C        1.37840000      -0.43320000      -0.29100000
C        2.42820000       0.46800000      -0.67590000
C        3.30500000       1.21160000      -1.03320000
C        0.88060000      -0.49780000       1.13730000
C        1.50710000       0.39230000       2.19370000
C        0.40940000      -1.84250000       1.65880000
H        0.60130000       2.13960000       0.20130000
H       -0.64210000       1.70650000      -0.98310000
H       -1.04100000       1.70980000       0.74140000
H        1.35490000      -1.35300000      -0.87360000
H        4.08430000       1.86170000      -1.34560000
H        1.96840000       1.28650000       1.77390000
H        0.75510000       0.69780000       2.93020000
H        2.28590000      -0.16010000       2.72940000
H        1.24520000      -2.41840000       2.07120000
H       -0.32980000      -1.70520000       2.45650000
H       -0.06100000      -2.42240000       0.86140000
