20
Properties=species:S:1:pos:R:3 gdb_5946=T pbc="F F F"
C       -0.00870000       1.39150000      -0.11900000
O        0.00800000      -0.00660000       0.05460000
C        0.70940000      -0.53400000       1.18460000
C        2.16340000      -0.04720000       1.24640000
C       -0.03670000      -0.20220000       2.48710000
C        0.65060000      -2.06660000       0.95690000
C        1.36690000      -2.53150000      -0.22390000
C        1.96420000      -2.93370000      -1.18630000
H        0.98730000       1.80390000      -0.33080000
H       -0.64990000       1.58500000      -0.98300000
H       -0.42860000       1.92580000       0.74540000
H        2.21900000       1.02220000       1.46770000
H        2.70250000      -0.57450000       2.03960000
H        2.67270000      -0.24060000       0.29940000
H       -1.07810000      -0.53170000       2.42440000
H        0.43460000      -0.69770000       3.34150000
H       -0.02830000       0.87260000       2.68850000
H        1.04510000      -2.56980000       1.84770000
H       -0.40620000      -2.34620000       0.87430000
H        2.48320000      -3.28530000      -2.04300000
