16
Properties=species:S:1:pos:R:3 gdb_2377=T pbc="F F F"
C        0.28210000       1.37620000       0.24750000
C        0.02420000      -0.07330000      -0.09050000
C        0.81290000      -0.76880000      -1.17110000
N        0.99440000      -1.09450000       0.22750000
C        2.13380000      -0.94850000       1.00910000
C        3.36500000      -1.64450000       0.45670000
O        2.11420000      -0.37120000       2.07500000
H        1.30470000       1.66930000      -0.00650000
H       -0.40940000       2.01780000      -0.30780000
H        0.14470000       1.55370000       1.31700000
H       -1.00650000      -0.39790000       0.04740000
H        0.35050000      -1.53450000      -1.78940000
H        1.58960000      -0.18860000      -1.66630000
H        3.81640000      -1.03420000      -0.33400000
H        4.09350000      -1.76830000       1.25800000
H        3.11160000      -2.61400000       0.02030000
