21
Properties=species:S:1:pos:R:3 gdb_38583=T pbc="F F F"
C       -0.01520000       1.51020000       0.10320000
C        1.30030000       0.78250000      -0.03960000
C        2.16260000       0.47380000       1.22330000
C        1.56320000      -0.86260000       1.70750000
C        0.78400000      -1.30040000       2.99670000
C       -0.16980000      -0.10340000       2.77710000
C        0.07090000      -0.72300000       1.35270000
C       -0.15130000      -2.11220000       2.02310000
C       -0.02110000       0.00340000       0.02900000
H       -0.25680000       1.98030000       1.05090000
H       -0.37670000       2.05790000      -0.76190000
H        1.82010000       0.88530000      -0.98610000
H        3.21820000       0.37930000       0.95570000
H        2.09380000       1.28270000       1.95670000
H        2.05680000      -1.69840000       1.19760000
H        1.18490000      -1.65590000       3.94690000
H       -1.18140000      -0.20190000       3.18070000
H        0.23200000       0.88950000       2.98290000
H        0.29450000      -2.97420000       1.51860000
H       -1.15330000      -2.33760000       2.39860000
H       -0.43150000      -0.48690000      -0.84650000
