20
Properties=species:S:1:pos:R:3 gdb_95620=T pbc="F F F"
C       -0.09230000       1.55310000      -0.00460000
C        0.10630000       0.03540000      -0.00390000
C        0.78050000      -0.48800000      -1.27860000
O        2.00950000       0.21890000      -1.43100000
C        1.02240000      -1.99670000      -1.16260000
C        1.95900000      -2.28570000       0.00820000
N        1.49140000      -1.61810000       1.21510000
C        0.81490000      -0.42780000       1.27920000
O        0.71090000       0.18180000       2.32810000
H        0.86460000       2.06590000      -0.12010000
H       -0.74390000       1.85170000      -0.83210000
H       -0.54200000       1.86870000       0.93730000
H       -0.88270000      -0.44360000       0.03750000
H        0.11890000      -0.28050000      -2.13380000
H        2.40190000      -0.03480000      -2.27220000
H        0.06260000      -2.50700000      -1.02060000
H        1.46400000      -2.38990000      -2.08590000
H        2.00940000      -3.36320000       0.19780000
H        2.97180000      -1.94770000      -0.25050000
H        1.95860000      -1.84470000       2.08220000
