16
Properties=species:S:1:pos:R:3 gdb_131527=T pbc="F F F"
O       -0.29230000       1.50340000      -0.21220000
C        0.04060000       0.14130000       0.02080000
C       -1.20460000      -0.79690000       0.17550000
C       -1.38100000      -1.53560000      -1.17680000
N       -0.04980000      -1.38560000      -1.75120000
N        0.52110000      -1.93890000      -2.82250000
N        1.72350000      -1.41460000      -2.90890000
C        1.90750000      -0.52500000      -1.89210000
C        0.76050000      -0.49860000      -1.12930000
H       -0.53430000       1.60260000      -1.13940000
H        0.62830000       0.15120000       0.94170000
H       -1.01080000      -1.52660000       0.96630000
H       -2.08240000      -0.21440000       0.45900000
H       -1.63540000      -2.59110000      -1.06560000
H       -2.12560000      -1.07030000      -1.83030000
H        2.83230000       0.01620000      -1.77850000
