19
Properties=species:S:1:pos:R:3 gdb_87242=T pbc="F F F"
C        0.10790000       1.71050000       0.25230000
C       -0.05690000       0.21590000       0.10600000
C        1.09790000      -0.63790000      -0.39350000
C        0.63260000      -0.71530000       1.04950000
O        1.40220000      -0.15020000       2.06710000
O       -1.34710000      -0.22100000      -0.24110000
C       -1.74000000       0.06550000      -1.56370000
C       -3.02180000      -0.69920000      -1.84470000
O       -3.66230000      -0.57820000      -2.85450000
H        1.06880000       1.93780000       0.71650000
H        0.06060000       2.22070000      -0.71530000
H       -0.68370000       2.11050000       0.89370000
H        0.87570000      -1.48040000      -1.03940000
H        2.04000000      -0.13650000      -0.58870000
H        0.06070000      -1.59980000       1.32740000
H        2.18070000      -0.70270000       2.19240000
H       -1.92380000       1.13710000      -1.73060000
H       -0.97700000      -0.25170000      -2.29350000
H       -3.31320000      -1.39480000      -1.02690000
