17
Properties=species:S:1:pos:R:3 gdb_79916=T pbc="F F F"
C       -0.01760000       1.40900000       0.07910000
C       -0.05930000      -0.08010000       0.04780000
C       -0.06090000      -0.93880000      -0.99510000
C        0.02240000      -2.31390000      -0.36850000
C       -0.96090000      -2.12270000       0.84310000
O       -0.96870000      -3.15280000       1.79460000
C        0.01980000      -0.98930000       1.26470000
C        1.13760000      -1.96340000       0.69970000
O        2.25470000      -2.26480000       0.94740000
H        0.89440000       1.76870000       0.57200000
H       -0.04040000       1.82350000      -0.93290000
H       -0.86300000       1.82610000       0.63950000
H       -0.02620000      -0.71540000      -2.05250000
H        0.03430000      -3.20610000      -0.99160000
H       -1.96420000      -1.77980000       0.55810000
H       -1.42360000      -3.91430000       1.42030000
H        0.02900000      -0.56950000       2.26800000
