17
Properties=species:S:1:pos:R:3 gdb_71788=T pbc="F F F"
C        0.03990000       1.49420000      -0.04970000
C       -0.09320000       0.00220000       0.00030000
O        0.45950000      -0.69150000      -1.14270000
C       -0.47560000      -1.75570000      -0.90330000
C       -0.04270000      -2.53790000       0.41840000
O        1.14620000      -1.92900000       0.95240000
C        0.34350000      -0.79300000       1.31980000
C       -0.97810000      -1.61070000       1.24890000
C       -1.40280000      -0.85090000      -0.04590000
H        1.09810000       1.77840000      -0.04260000
H       -0.42100000       1.89760000      -0.95600000
H       -0.44210000       1.95160000       0.82080000
H       -0.74140000      -2.31810000      -1.79890000
H       -0.01810000      -3.62820000       0.41760000
H        0.73720000      -0.23290000       2.16990000
H       -1.59370000      -1.90960000       2.09350000
H       -2.38820000      -0.48750000      -0.32840000
