20
Properties=species:S:1:pos:R:3 gdb_108320=T pbc="F F F"
C       -0.08260000       1.53480000       0.14290000
N       -0.01630000       0.09080000       0.13350000
C       -1.25690000      -0.65740000       0.46510000
C       -0.45490000      -1.54000000       1.44180000
C       -1.04820000      -2.03420000       2.73730000
O       -1.91020000      -3.13010000       2.48610000
O        0.26000000      -2.61640000       0.77500000
C        1.47980000      -1.82720000       0.70200000
C        0.74170000      -0.58140000       1.21270000
H        0.91590000       1.95490000      -0.01760000
H       -0.72310000       1.87680000      -0.67680000
H       -0.48600000       1.95690000       1.08400000
H       -2.00520000      -0.04400000       0.99140000
H       -1.72960000      -1.16170000      -0.38270000
H       -0.23630000      -2.30910000       3.43010000
H       -1.64970000      -1.25430000       3.21560000
H       -1.39170000      -3.75820000       1.96760000
H        2.24620000      -2.22300000       1.38090000
H        1.87020000      -1.76150000      -0.31780000
H        1.20120000       0.05960000       1.96920000
