15
Properties=species:S:1:pos:R:3 gdb_49579=T pbc="F F F"
O       -0.49500000       0.65470000      -0.81150000
C        0.09980000       1.00390000       0.17400000
C        1.26460000       1.97020000       0.15630000
C        1.50940000       2.80290000      -1.09380000
C        0.43930000       3.79060000      -1.30220000
N        1.49330000       4.12070000      -0.31920000
C        1.17190000       3.33790000       0.93120000
C       -0.08650000       3.67240000       1.58970000
N       -1.09220000       3.92090000       2.10310000
H       -0.16860000       0.62030000       1.18320000
H        2.15260000       1.42980000       0.50030000
H        2.27360000       2.59780000      -1.83370000
H        0.50730000       4.41190000      -2.18860000
H       -0.57350000       3.59710000      -0.96060000
H        1.98850000       3.46200000       1.64440000
