18
Properties=species:S:1:pos:R:3 gdb_72211=T pbc="F F F"
O        0.07570000       1.35630000       0.11790000
C        0.01270000      -0.03390000       0.02170000
C        0.22260000      -0.67290000      -1.40290000
N       -1.18450000      -1.25130000      -1.42330000
C       -1.21260000      -2.73270000      -1.27740000
C       -0.55820000      -2.98600000       0.09130000
C       -0.62590000      -1.84990000       0.78860000
C        0.43870000      -0.89080000       1.28880000
C       -1.33760000      -0.77200000      -0.02650000
H        1.00100000       1.62270000       0.07780000
H        0.32750000       0.10110000      -2.16720000
H        1.02920000      -1.40540000      -1.50700000
H       -2.25130000      -3.07770000      -1.36310000
H       -0.64520000      -3.21360000      -2.08200000
H        0.08880000      -3.83240000       0.29210000
H        1.45680000      -1.27890000       1.37920000
H        0.17750000      -0.30720000       2.17810000
H       -2.29260000      -0.35560000       0.29950000
