18
Properties=species:S:1:pos:R:3 gdb_51571=T pbc="F F F"
O       -0.55120000       0.67120000       0.43720000
C        0.12260000       1.65730000       0.29150000
C        1.49120000       1.67380000      -0.36640000
C        1.57000000       2.71610000      -1.46300000
O        1.52850000       4.10200000      -1.07290000
C        2.72570000       3.60390000      -1.67990000
C        3.95330000       3.59120000      -0.81680000
C        4.45270000       4.86600000      -0.24310000
N        3.83450000       3.84730000       0.62500000
H       -0.22490000       2.65310000       0.64570000
H        2.23760000       1.88640000       0.40780000
H        1.69190000       0.67870000      -0.77500000
H        0.94280000       2.50420000      -2.33030000
H        2.88640000       3.96000000      -2.69930000
H        4.67740000       2.82230000      -1.08020000
H        5.51830000       5.01480000      -0.09670000
H        3.88550000       5.76890000      -0.45350000
H        2.87310000       4.13490000       0.80320000
