18
Properties=species:S:1:pos:R:3 gdb_106424=T pbc="F F F"
O        0.02790000       1.41020000       0.12950000
C        0.00060000      -0.01020000       0.12460000
C       -1.40070000      -0.55340000       0.11390000
C       -2.55460000      -0.36320000       1.15030000
C       -3.16050000      -1.12920000      -0.06150000
N       -2.37970000      -0.23580000      -1.02370000
C       -1.90200000      -2.00150000      -0.04520000
C       -1.44350000      -3.21650000      -0.68560000
O       -1.61830000      -3.10810000       0.75800000
H       -0.25560000       1.70520000      -0.74190000
H        0.55690000      -0.42080000      -0.73150000
H        0.50980000      -0.33390000       1.03840000
H       -2.47610000      -0.89020000       2.10570000
H       -2.89890000       0.66700000       1.27410000
H       -4.19570000      -1.41120000      -0.25110000
H       -2.71470000       0.72270000      -0.87920000
H       -2.15350000      -3.87350000      -1.18380000
H       -0.41030000      -3.31070000      -1.01380000
