22
Properties=species:S:1:pos:R:3 gdb_87625=T pbc="F F F"
C       -0.03430000       1.66240000       0.19160000
C       -0.15390000       0.16010000       0.28750000
N        0.93640000      -0.63940000      -0.29970000
C        0.71390000      -0.69260000       1.15890000
C        1.75480000      -0.14110000       2.07100000
C        1.72120000      -0.73580000       3.26300000
C        0.64150000      -1.78970000       3.33630000
C        0.21970000      -1.98020000       1.85400000
C       -1.24860000      -2.35120000       1.66100000
H        1.00330000       1.98360000       0.30600000
H       -0.38660000       2.01430000      -0.78430000
H       -0.63630000       2.15290000       0.96440000
H       -1.16520000      -0.21360000       0.13570000
H        0.56270000      -1.48170000      -0.73390000
H        2.42640000       0.65350000       1.77140000
H        2.35990000      -0.49110000       4.10430000
H        0.98270000      -2.72530000       3.79380000
H       -0.20450000      -1.43980000       3.94670000
H        0.83730000      -2.79390000       1.44730000
H       -1.91150000      -1.58260000       2.07200000
H       -1.50150000      -2.48370000       0.60260000
H       -1.47630000      -3.29530000       2.16680000
