18
Properties=species:S:1:pos:R:3 gdb_18160=T pbc="F F F"
C        0.44150000       1.71360000      -0.63200000
C        0.46470000       0.22010000      -0.38760000
C        1.71000000      -0.60230000      -0.34590000
O        2.78840000       0.10230000       0.28660000
C        2.08490000       0.03920000       1.56810000
C        2.12010000       1.35480000       2.32370000
O        3.46160000       1.74340000       2.56580000
C        0.83590000      -0.52200000       0.89330000
H        1.41420000       2.15930000      -0.41600000
H        0.21130000       1.91620000      -1.68340000
H       -0.31650000       2.21670000      -0.02260000
H       -0.34200000      -0.32040000      -0.88190000
H        1.97330000      -1.41820000      -1.00970000
H        2.57310000      -0.73000000       2.18140000
H        1.56400000       2.13490000       1.78900000
H        1.64620000       1.22000000       3.30290000
H        3.90150000       1.74920000       1.70740000
H        0.18560000      -1.26760000       1.33100000
