23
Properties=species:S:1:pos:R:3 gdb_62723=T pbc="F F F"
C       -0.08570000       1.52700000       0.01660000
C        0.02020000       0.01340000       0.02010000
C       -1.20260000      -0.63920000      -0.60800000
C        1.35330000      -0.70480000      -0.23950000
C        2.61950000       0.06400000      -0.10910000
C        2.79130000       0.53050000       1.13060000
C        1.66380000       0.11140000       2.04800000
C        0.72100000      -0.72070000       1.15400000
C        0.14190000      -1.95950000       1.80370000
H        0.83620000       2.01750000       0.33160000
H       -0.32610000       1.89050000      -0.98930000
H       -0.89210000       1.85680000       0.68340000
H       -1.38080000      -0.21820000      -1.60420000
H       -1.09320000      -1.71960000      -0.72760000
H       -2.10460000      -0.45910000      -0.01030000
H        1.31890000      -1.57460000      -0.88980000
H        3.29300000       0.23390000      -0.94210000
H        3.61210000       1.15760000       1.46100000
H        2.03200000      -0.49240000       2.88920000
H        1.15880000       0.97620000       2.49950000
H       -0.50330000      -1.69410000       2.65050000
H       -0.45320000      -2.56350000       1.11620000
H        0.94340000      -2.59830000       2.19280000
