19
Properties=species:S:1:pos:R:3 gdb_43822=T pbc="F F F"
O        0.08040000      -0.01490000       0.10420000
C        0.02300000       1.18290000      -0.02120000
C       -1.26870000       2.00320000      -0.20070000
C       -0.82460000       3.28500000      -0.90160000
C       -1.37090000       3.64670000      -2.25940000
C       -1.72820000       4.47930000      -1.04890000
C        0.65670000       3.44450000      -0.63500000
C        1.09670000       3.35680000       0.78990000
C        1.18540000       2.11980000      -0.10060000
H       -2.00350000       1.42060000      -0.76050000
H       -1.70190000       2.19740000       0.78920000
H       -0.69040000       4.07400000      -2.98920000
H       -2.13740000       3.00910000      -2.68780000
H       -2.73870000       4.40610000      -0.65990000
H       -1.28880000       5.46780000      -0.96130000
H        1.24620000       4.02970000      -1.33230000
H        2.04760000       3.80460000       1.05550000
H        0.35550000       3.38260000       1.58180000
H        2.15940000       1.71340000      -0.34040000
