18
Properties=species:S:1:pos:R:3 gdb_72099=T pbc="F F F"
C       -0.00830000       1.51090000      -0.00980000
C       -0.03730000       0.01610000       0.06530000
O       -0.00850000      -0.61810000      -1.20060000
C       -0.31750000      -1.97080000      -0.91000000
C        0.93860000      -2.65270000      -0.37230000
N        1.38630000      -1.95680000       0.85290000
C        0.57210000      -0.80840000       1.18440000
C       -0.93150000      -0.84910000       0.92220000
O       -1.31240000      -1.94310000       0.11010000
H        0.93570000       1.86320000      -0.43820000
H       -0.82930000       1.87770000      -0.63410000
H       -0.11140000       1.94500000       0.98850000
H       -0.72600000      -2.44790000      -1.80330000
H        0.72000000      -3.70610000      -0.16750000
H        1.71680000      -2.61320000      -1.14660000
H        1.37820000      -2.60040000       1.63480000
H        0.92240000      -0.25920000       2.05350000
H       -1.71330000      -0.51250000       1.59220000
