15
Properties=species:S:1:pos:R:3 gdb_28821=T pbc="F F F"
C       -0.39200000       1.40500000       0.12960000
C        0.06200000      -0.01540000      -0.04790000
N        0.07630000      -0.51460000      -1.24560000
C        0.26410000      -1.82960000      -1.55350000
C        0.07240000      -2.94040000      -0.78920000
C       -0.12150000      -2.97650000       0.65580000
O       -0.57220000      -3.92600000       1.27250000
C        0.50870000      -1.83470000       1.40260000
N        0.54280000      -0.58990000       1.10950000
H        0.44520000       2.02930000       0.45880000
H       -0.79720000       1.79190000      -0.80480000
H       -1.15130000       1.45710000       0.91750000
H        0.48690000      -1.98610000      -2.60780000
H        0.09500000      -3.91320000      -1.27300000
H        0.98680000      -2.14350000       2.33620000
