16
Properties=species:S:1:pos:R:3 gdb_75850=T pbc="F F F"
C       -0.05160000       1.44880000       0.00900000
N        0.00230000       0.00320000      -0.00090000
C       -1.12990000      -0.80240000       0.00300000
N       -2.30680000      -0.31880000       0.01370000
C       -0.56470000      -2.22160000      -0.00790000
N        0.89380000      -2.09040000      -0.01600000
C        1.12610000      -0.82480000      -0.01120000
C        2.43450000      -0.25760000      -0.01650000
C        3.53260000       0.23140000      -0.02080000
H        0.96480000       1.84320000       0.00020000
H       -0.59640000       1.81310000      -0.86730000
H       -0.57680000       1.80240000       0.90160000
H       -3.00140000      -1.06420000       0.01480000
H       -0.89160000      -2.78910000       0.87180000
H       -0.90200000      -2.77950000      -0.88990000
H        4.51000000       0.64830000      -0.02490000
