16
Properties=species:S:1:pos:R:3 gdb_129777=T pbc="F F F"
N        0.08430000       1.39610000       0.02610000
C       -0.07820000       0.02930000       0.01140000
C       -1.15130000      -0.80190000       0.07980000
C       -2.64040000      -0.94900000       0.17930000
C       -2.80410000      -2.47610000      -0.12810000
N       -1.49800000      -3.08400000       0.22020000
C       -0.55130000      -2.08360000       0.09730000
N        0.75430000      -2.09690000       0.03000000
O        1.06390000      -0.68910000      -0.02670000
H        0.96560000       1.70210000      -0.36320000
H       -0.69980000       1.91490000      -0.34050000
H       -3.01290000      -0.71770000       1.18510000
H       -3.21820000      -0.34580000      -0.52760000
H       -3.60770000      -2.93390000       0.45470000
H       -3.03390000      -2.61510000      -1.19420000
H       -1.28820000      -3.98180000      -0.19160000
