20
Properties=species:S:1:pos:R:3 gdb_92090=T pbc="F F F"
O        0.12490000       1.37510000       0.15720000
C        0.02760000      -0.03670000       0.01370000
C       -1.44350000      -0.44930000      -0.03610000
C       -2.11740000      -0.22100000      -1.38080000
C       -2.13600000       1.10890000      -2.03960000
N       -1.33970000       0.01700000      -2.61160000
C        0.12190000       0.14030000      -2.50750000
C        0.74020000      -0.49750000      -1.25570000
O        2.10320000      -0.10300000      -1.10770000
H        1.05360000       1.58970000       0.00210000
H        0.50760000      -0.52900000       0.87330000
H       -1.49260000      -1.51910000       0.19930000
H       -1.98740000       0.07270000       0.75890000
H       -2.97080000      -0.87580000      -1.55130000
H       -2.99250000       1.41860000      -2.63400000
H       -1.60270000       1.90950000      -1.53390000
H        0.56200000      -0.33190000      -3.39700000
H        0.41790000       1.19480000      -2.52320000
H        0.66140000      -1.59440000      -1.31580000
H        2.54980000      -0.21710000      -1.95290000
