18
Properties=species:S:1:pos:R:3 gdb_7171=T pbc="F F F"
C       -0.30170000       1.22960000      -0.60250000
O       -0.46230000      -0.16910000      -0.55910000
C       -0.88690000      -0.63920000       0.69930000
C       -1.01570000      -2.16350000       0.64730000
O       -1.33080000      -2.66310000       1.93450000
C       -2.02740000      -2.60120000      -0.43030000
C       -2.13270000      -4.04610000      -0.57600000
C       -2.21070000      -5.23900000      -0.69790000
H        0.02990000       1.48990000      -1.61040000
H       -1.24650000       1.75480000      -0.39090000
H        0.45220000       1.57480000       0.12170000
H       -0.16820000      -0.37160000       1.48950000
H       -1.86080000      -0.19220000       0.97570000
H       -0.03690000      -2.58740000       0.40100000
H       -2.25160000      -2.45090000       2.12350000
H       -3.01230000      -2.17770000      -0.17960000
H       -1.73180000      -2.13940000      -1.37870000
H       -2.28010000      -6.29290000      -0.80490000
