15
Properties=species:S:1:pos:R:3 gdb_48859=T pbc="F F F"
O       -0.20420000       0.20240000       0.62490000
C       -0.00410000       1.20480000      -0.01310000
C        1.32920000       1.85400000      -0.11840000
C        2.46040000       1.55160000       0.93440000
C        2.85380000       2.93550000       0.47070000
N        3.75470000       3.08890000      -0.41520000
C        2.99680000       3.35050000      -1.66470000
C        1.58670000       2.90750000      -1.24930000
N        1.43680000       3.34350000       0.12190000
H       -0.81680000       1.72460000      -0.56620000
H        1.98080000       1.44290000       1.90920000
H        3.20020000       0.77570000       0.75040000
H        2.97360000       4.40010000      -1.99070000
H        3.45970000       2.75780000      -2.45880000
H        0.74430000       3.08200000      -1.91580000
