18
Properties=species:S:1:pos:R:3 gdb_49560=T pbc="F F F"
O       -0.00080000      -0.01140000      -0.26680000
C        0.02790000       1.18650000      -0.07200000
N        1.12890000       1.88700000       0.29700000
C        2.54630000       1.51530000       0.07330000
C        2.67590000       2.79110000      -0.80950000
C        1.49130000       3.30450000       0.05830000
C        2.04530000       3.83600000       1.38590000
O        3.23570000       3.14120000       1.74300000
C        3.26930000       1.75550000       1.40150000
H       -0.86760000       1.83870000      -0.14060000
H        2.69940000       0.52160000      -0.34760000
H        3.61290000       3.34750000      -0.76690000
H        2.37210000       2.60120000      -1.83960000
H        0.71220000       3.93670000      -0.37380000
H        2.32720000       4.89110000       1.30350000
H        1.27390000       3.73600000       2.16420000
H        2.80330000       1.14040000       2.18460000
H        4.32980000       1.49280000       1.33080000
