20
Properties=species:S:1:pos:R:3 gdb_80620=T pbc="F F F"
C       -0.10460000       1.56860000      -0.06150000
C        0.07220000       0.05390000      -0.00560000
C        1.02600000      -0.56530000      -1.06230000
C        2.44970000      -0.30880000      -0.51650000
C        1.89840000      -1.32680000       0.50580000
O        1.13690000      -1.94240000      -0.58590000
C        0.81140000      -0.53330000       1.22480000
C        0.95490000       0.11320000       2.54660000
N        0.15400000      -1.12190000       2.38710000
H        0.84860000       2.09620000       0.03950000
H       -0.55880000       1.87200000      -1.01130000
H       -0.76380000       1.92210000       0.73850000
H       -0.90320000      -0.43530000      -0.11150000
H        0.75780000      -0.47480000      -2.11540000
H        3.21360000      -0.74700000      -1.15890000
H        2.73350000       0.69080000      -0.17790000
H        2.50660000      -2.01840000       1.08700000
H        1.86770000      -0.00790000       3.12530000
H        0.43860000       1.05390000       2.72020000
H       -0.83790000      -0.89350000       2.38160000
