21
Properties=species:S:1:pos:R:3 gdb_113444=T pbc="F F F"
C       -0.10940000       1.60520000       0.37920000
N       -0.05830000       0.17670000       0.16530000
C       -1.26950000      -0.62100000       0.46400000
C       -0.35480000      -1.68420000       1.07640000
C        0.76370000      -0.63950000       1.08380000
N       -0.72140000      -2.62120000       2.12780000
C       -0.24100000      -3.13330000       0.81640000
C       -1.28100000      -3.92440000       0.06000000
O       -1.54950000      -5.16000000       0.70020000
H        0.87650000       2.04440000       0.19310000
H       -0.81550000       2.05970000      -0.32370000
H       -0.42090000       1.88350000       1.40470000
H       -1.92500000      -0.16770000       1.22560000
H       -1.86990000      -0.88490000      -0.41300000
H        1.74730000      -0.92660000       0.69410000
H        0.89320000      -0.18280000       2.08110000
H        0.01620000      -2.67480000       2.82660000
H        0.76480000      -3.55040000       0.79000000
H       -2.19600000      -3.32170000      -0.04370000
H       -0.92310000      -4.16540000      -0.94640000
H       -1.79500000      -4.93550000       1.60590000
