18
Properties=species:S:1:pos:R:3 gdb_113067=T pbc="F F F"
O        0.28260000       0.97560000      -0.58110000
C        0.11420000      -0.31660000      -0.03070000
C       -1.36760000      -0.62510000       0.17740000
N       -2.13980000      -0.62280000      -1.10910000
C       -2.63850000      -2.02250000      -0.90860000
C       -2.28130000      -2.95590000      -2.06490000
O       -0.95470000      -2.74440000      -2.49580000
C       -1.75900000      -2.10080000       0.35560000
O       -1.48900000      -2.96020000       1.13760000
H       -0.18930000       0.97250000      -1.42250000
H        0.55680000      -1.09340000      -0.67140000
H        0.63680000      -0.33040000       0.93000000
H       -1.78600000       0.03210000       0.94980000
H       -2.88070000       0.06760000      -1.13180000
H       -3.70700000      -2.10010000      -0.66600000
H       -2.35790000      -3.99410000      -1.72510000
H       -3.00150000      -2.81470000      -2.88710000
H       -0.88280000      -1.78930000      -2.62790000
