23
Properties=species:S:1:pos:R:3 gdb_82564=T pbc="F F F"
C       -0.06010000       1.54080000      -0.09710000
C        0.07420000       0.03750000       0.03320000
C        1.32910000      -0.75810000      -0.19860000
C        2.57100000      -0.03920000       0.34560000
C        1.92740000      -0.04050000       1.77290000
C        2.73350000      -0.77670000       2.87860000
C        3.11150000       0.60100000       3.48400000
C        1.95160000       1.23130000       2.66900000
C        0.67970000      -0.70880000       1.19530000
H        0.83370000       2.07160000       0.23680000
H       -0.24040000       1.82260000      -1.14080000
H       -0.90330000       1.91070000       0.49680000
H       -0.79870000      -0.49250000      -0.34710000
H        1.35720000      -1.58250000      -0.90150000
H        3.47310000      -0.65470000       0.30120000
H        2.79890000       0.93720000      -0.09580000
H        2.06850000      -1.33930000       3.54290000
H        3.54180000      -1.44040000       2.55780000
H        3.07800000       0.69880000       4.57150000
H        4.08960000       0.94620000       3.13720000
H        2.14330000       2.18970000       2.17860000
H        1.03530000       1.32430000       3.26070000
H        0.12460000      -1.48440000       1.71400000
