25
Properties=species:S:1:pos:R:3 gdb_101615=T pbc="F F F"
C        0.12640000       1.56090000      -0.14120000
C        0.03810000       0.03850000      -0.00940000
C       -1.40170000      -0.48750000       0.01610000
O       -2.11440000      -0.08240000      -1.16900000
C       -1.46260000      -2.00730000       0.22170000
C       -2.87780000      -2.63520000       0.28340000
C       -2.75240000      -4.15180000       0.45500000
C       -3.71800000      -2.04420000       1.42980000
O       -3.55790000      -2.44770000      -0.95780000
H        1.16710000       1.89200000      -0.20560000
H       -0.40060000       1.90410000      -1.03520000
H       -0.32950000       2.05710000       0.72250000
H        0.57240000      -0.44380000      -0.84140000
H        0.54500000      -0.29140000       0.90560000
H       -1.94110000       0.01680000       0.82630000
H       -1.66080000      -0.47740000      -1.92400000
H       -0.91490000      -2.49410000      -0.59770000
H       -0.92210000      -2.24870000       1.14550000
H       -2.28250000      -4.40680000       1.40980000
H       -3.74460000      -4.61090000       0.42140000
H       -2.15460000      -4.57940000      -0.35530000
H       -3.90440000      -0.97630000       1.27950000
H       -4.68920000      -2.54540000       1.46590000
H       -3.22690000      -2.17140000       2.40100000
H       -3.47940000      -1.50630000      -1.16800000
