18
Properties=species:S:1:pos:R:3 gdb_80295=T pbc="F F F"
C       -0.05730000       1.55380000      -0.01440000
C        0.05730000       0.04770000       0.01700000
C        1.36060000      -0.71010000      -0.24140000
N        2.59320000      -0.02420000      -0.01470000
C        2.68150000       0.47360000       1.26920000
O        3.52120000       1.19180000       1.73320000
O        1.59880000       0.00850000       1.97920000
C        0.72990000      -0.72990000       1.12880000
C        0.11720000      -1.91450000       1.81640000
H        0.83900000       2.04940000       0.36420000
H       -0.22740000       1.90610000      -1.03720000
H       -0.89860000       1.88900000       0.60030000
H       -0.80810000      -0.47810000      -0.38050000
H        1.39230000      -1.57670000      -0.89270000
H        3.12660000       0.42950000      -0.73770000
H       -0.52630000      -1.59200000       2.64110000
H       -0.49150000      -2.48940000       1.11340000
H        0.89300000      -2.56990000       2.22380000
