19
Properties=species:S:1:pos:R:3 gdb_49174=T pbc="F F F"
O       -0.16890000      -0.00010000       0.01800000
C       -0.03160000       1.20250000       0.08830000
C        1.25310000       1.90620000       0.00390000
C        1.26500000       3.25180000       0.05940000
C        2.49640000       4.05010000      -0.02660000
C        3.65530000       3.73570000       0.92430000
C        3.74770000       3.32820000      -0.51170000
C        3.59020000       1.88480000      -0.95710000
C        2.52110000       1.10790000      -0.16450000
H       -0.91150000       1.87320000       0.22130000
H        0.32110000       3.78440000       0.16260000
H        2.37180000       5.09380000      -0.29310000
H        4.25120000       4.57640000       1.26190000
H        3.47870000       2.98040000       1.68140000
H        4.41170000       3.92330000      -1.13200000
H        3.31270000       1.88740000      -2.01860000
H        4.55050000       1.36190000      -0.88670000
H        2.91480000       0.82900000       0.82140000
H        2.28320000       0.16200000      -0.65910000
