16
Properties=species:S:1:pos:R:3 gdb_87358=T pbc="F F F"
O       -0.13400000       1.24430000      -0.09710000
C       -0.11230000      -0.13450000       0.11540000
C       -0.73980000      -0.73340000       1.32700000
C       -1.46580000      -0.82980000      -0.01480000
N       -2.57460000       0.02800000      -0.27620000
C       -3.84950000      -0.31560000       0.05980000
O       -4.17060000      -1.38770000       0.52480000
C       -1.46630000      -2.15890000      -0.69350000
O       -0.63400000      -3.00610000      -0.47750000
H        0.28610000       1.67760000       0.65290000
H        0.72390000      -0.66180000      -0.33870000
H       -0.32320000      -1.65900000       1.70720000
H       -1.19100000      -0.06390000       2.05050000
H       -2.36540000       0.96800000      -0.58010000
H       -4.56900000       0.49700000      -0.16000000
H       -2.27610000      -2.29860000      -1.43670000
