18
Properties=species:S:1:pos:R:3 gdb_77450=T pbc="F F F"
C        0.07980000       1.59180000      -0.04270000
C        0.12860000       0.08050000      -0.06860000
C        0.69960000      -0.77280000      -1.17790000
C       -0.00960000      -1.87140000      -1.90710000
N        1.91310000      -0.15600000      -1.74750000
C        2.57010000      -0.11520000      -0.50060000
O        3.63960000       0.31410000      -0.17280000
C        1.37910000      -0.78630000       0.18310000
O        1.40720000      -1.81700000       1.09190000
H        0.95100000       2.03930000      -0.52850000
H       -0.81610000       1.96000000      -0.55460000
H        0.05040000       1.96460000       0.98640000
H       -0.73050000      -0.40030000       0.40020000
H       -0.60550000      -1.48030000      -2.73940000
H        0.71020000      -2.58930000      -2.31070000
H       -0.68650000      -2.39980000      -1.22950000
H        1.89750000       0.64190000      -2.37420000
H        1.47710000      -1.44490000       1.97800000
