17
Properties=species:S:1:pos:R:3 gdb_110745=T pbc="F F F"
C       -0.25370000       1.43140000       0.11710000
C        0.19350000      -0.01600000      -0.11690000
C        0.83160000      -0.62140000       1.11700000
C        0.08650000      -1.28750000       2.23050000
O       -1.04510000      -2.02370000       1.68390000
C       -0.18850000      -2.88080000       0.99540000
O       -0.46890000      -3.88300000       0.42500000
C        1.05520000      -2.10800000       1.38150000
O        2.32020000      -2.60200000       1.54650000
H        0.58990000       2.06900000       0.40350000
H       -0.69780000       1.85360000      -0.78890000
H       -1.00090000       1.48740000       0.91540000
H       -0.66570000      -0.62210000      -0.41890000
H        0.91520000      -0.05710000      -0.94100000
H        1.69890000      -0.07660000       1.49350000
H        0.05520000      -1.04700000       3.28340000
H        2.27030000      -3.43160000       2.03630000
