18
Properties=species:S:1:pos:R:3 gdb_126798=T pbc="F F F"
C        0.01150000       1.56640000      -0.08030000
C        0.05440000       0.03940000      -0.01860000
N        0.69340000      -0.54490000      -1.18800000
N        0.01130000      -0.85740000      -2.28310000
C        0.95400000      -1.26520000      -3.13560000
C        2.20310000      -1.16950000      -2.50350000
C        3.55820000      -1.53430000      -3.01850000
O        3.53700000      -1.39720000      -4.43200000
N        2.01180000      -0.69970000      -1.26820000
H        1.02290000       1.97750000      -0.13740000
H       -0.55180000       1.90000000      -0.95590000
H       -0.47430000       1.96260000       0.81640000
H        0.61850000      -0.30280000       0.85170000
H       -0.95230000      -0.38090000       0.02640000
H        0.71080000      -1.59500000      -4.13160000
H        4.31020000      -0.88320000      -2.54900000
H        3.80090000      -2.56960000      -2.72840000
H        4.35500000      -1.76550000      -4.77780000
