21
Properties=species:S:1:pos:R:3 gdb_104363=T pbc="F F F"
C       -0.01590000       1.52370000      -0.13980000
C        0.08000000       0.00340000       0.01360000
C        0.70330000      -0.50520000       1.34660000
C       -0.06140000      -0.01500000       2.57590000
C        0.88050000      -2.03340000       1.27100000
O        2.07150000      -2.25240000       0.51060000
C        3.00490000      -1.26680000       0.90440000
C        2.17810000      -0.07180000       1.38630000
O        2.61170000       0.99320000       1.74280000
H        0.95900000       2.00430000      -0.02310000
H       -0.40360000       1.77720000      -1.13130000
H       -0.69180000       1.96320000       0.59960000
H       -0.92300000      -0.43740000      -0.05880000
H        0.65790000      -0.41870000      -0.81690000
H       -1.13040000      -0.23680000       2.48850000
H        0.30960000      -0.49360000       3.48790000
H        0.05980000       1.06390000       2.69820000
H        0.98410000      -2.46360000       2.28070000
H        0.06460000      -2.54660000       0.75600000
H        3.64600000      -1.60880000       1.73460000
H        3.65110000      -1.00730000       0.06070000
