17
Properties=species:S:1:pos:R:3 gdb_54131=T pbc="F F F"
C       -0.19650000       1.55020000       0.62400000
C        0.07420000       0.22600000      -0.05730000
O        1.16830000      -0.08180000      -0.47560000
C       -1.09200000      -0.75930000      -0.17600000
O       -2.35390000      -0.18360000       0.10080000
C       -1.07280000      -1.66630000      -1.44930000
C       -1.25580000      -2.87530000      -0.52330000
O       -1.59000000      -4.00890000      -0.69170000
C       -0.93120000      -2.03450000       0.72190000
H        0.74210000       2.08980000       0.75240000
H       -0.88580000       2.15310000       0.02220000
H       -0.69130000       1.39490000       1.58750000
H       -2.63470000       0.32670000      -0.66620000
H       -1.84300000      -1.48780000      -2.20390000
H       -0.08110000      -1.66850000      -1.91270000
H        0.09850000      -2.19040000       1.05630000
H       -1.62080000      -2.10200000       1.56510000
