16
Properties=species:S:1:pos:R:3 gdb_33363=T pbc="F F F"
N        0.07320000      -3.71830000      -0.46020000
C        0.04100000      -2.56400000      -0.33230000
C        0.00010000      -1.20820000      -0.17850000
C       -0.03810000      -0.00840000      -0.03780000
C       -0.07710000       1.44590000       0.12820000
C       -0.65890000       1.87300000       1.51490000
C        0.40480000       2.84860000       2.05160000
C        1.66850000       2.35430000       1.34840000
O        1.23390000       2.00340000       0.03560000
H       -0.66270000       1.86890000      -0.69670000
H       -1.64640000       2.32460000       1.40830000
H       -0.75700000       1.00230000       2.16700000
H        0.18300000       3.87380000       1.74080000
H        0.48220000       2.82810000       3.14100000
H        2.44920000       3.11070000       1.24000000
H        2.09560000       1.48070000       1.86420000
