18
Properties=species:S:1:pos:R:3 gdb_76255=T pbc="F F F"
C       -0.40870000       1.35860000       0.13340000
C       -0.04080000      -0.10060000      -0.07140000
C        0.85470000      -0.42710000      -1.32410000
O        1.14540000       0.65550000      -2.16810000
C        1.94770000      -0.80320000      -0.32880000
N        3.16280000      -1.09870000      -0.48430000
N        1.08570000      -0.59540000       0.75580000
C        1.27230000      -0.71790000       2.10710000
N        2.38880000      -1.10270000       2.59080000
H        0.46380000       2.00140000       0.00090000
H       -1.16400000       1.65710000      -0.59950000
H       -0.82390000       1.52090000       1.13330000
H       -0.92220000      -0.74600000       0.00810000
H        0.47500000      -1.28310000      -1.89640000
H        2.10160000       0.66210000      -2.29440000
H        3.61640000      -1.23890000       0.42050000
H        0.37650000      -0.45700000       2.68370000
H        2.34170000      -1.14440000       3.60640000
