14
Properties=species:S:1:pos:R:3 gdb_75083=T pbc="F F F"
N        0.02190000       1.36050000       0.08290000
C       -0.02340000      -0.01260000       0.01010000
N       -1.09270000      -0.71010000       0.05020000
C       -0.69160000      -2.10900000       0.04110000
C        0.83320000      -2.13490000      -0.06860000
O        1.58640000      -3.05950000      -0.13190000
N        1.18920000      -0.74310000      -0.05770000
C        2.48030000      -0.21350000       0.04350000
O        3.49350000      -0.84680000      -0.05390000
H        0.67010000       1.82090000      -0.54070000
H       -0.90730000       1.75800000       0.03560000
H       -1.00120000      -2.63160000       0.95450000
H       -1.13970000      -2.64950000      -0.80030000
H        2.45810000       0.87310000       0.24360000
