16
Properties=species:S:1:pos:R:3 gdb_18766=T pbc="F F F"
C       -0.00210000       1.47670000       0.08720000
C        1.56290000       1.55840000      -0.03460000
C        1.58840000       0.05310000       0.15970000
O        2.55590000      -0.88830000      -0.26240000
C        2.21780000      -1.76720000       0.85390000
C        1.27590000      -0.70050000       1.46390000
O       -0.12470000      -0.83360000       1.15500000
C        0.05890000      -0.07650000      -0.06640000
H       -0.39270000       1.77650000       1.06110000
H       -0.55320000       1.99780000      -0.69720000
H        1.87190000       1.83840000      -1.04620000
H        2.10950000       2.17450000       0.68360000
H        1.70870000      -2.68010000       0.52850000
H        3.10960000      -2.01510000       1.43910000
H        1.46810000      -0.36500000       2.48500000
H       -0.43630000      -0.52550000      -0.92910000
