18
Properties=species:S:1:pos:R:3 gdb_96975=T pbc="F F F"
C        0.51750000       1.44750000      -0.07060000
N        0.47990000      -0.00650000      -0.08260000
C        0.40600000      -0.63500000       1.00270000
C        0.35540000      -2.14910000       1.14220000
C        0.49800000      -2.38970000       2.63520000
O       -0.20400000      -3.43640000       3.22550000
C        1.73580000      -1.82830000       3.31230000
C        0.45270000      -1.03080000       3.25540000
O        0.35800000      -0.04460000       2.25220000
H        1.18230000       1.79110000      -0.86920000
H       -0.48130000       1.84380000      -0.29220000
H        0.84880000       1.87560000       0.88240000
H       -0.62050000      -2.52180000       0.81350000
H        1.12200000      -2.61770000       0.52030000
H        0.30730000      -4.24460000       3.10770000
H        1.98590000      -2.25750000       4.27640000
H        2.57790000      -1.50060000       2.71060000
H       -0.11030000      -0.79310000       4.14850000
