16
Properties=species:S:1:pos:R:3 gdb_51154=T pbc="F F F"
O        0.26720000       1.75190000       1.59290000
C        0.02160000       1.58750000       0.41620000
N        0.90760000       1.17040000      -0.52980000
C        2.26510000       0.82650000      -0.34500000
C        2.92070000       0.41990000       0.95850000
C        3.55110000       1.55260000       0.22120000
C        4.40760000       0.99850000      -0.92600000
C        3.08920000       0.45340000      -1.52710000
O        2.75130000       0.16620000      -2.64550000
H       -0.97750000       1.77100000      -0.02350000
H        0.59830000       1.12330000      -1.49130000
H        2.31830000       0.69300000       1.81600000
H        3.43370000      -0.53650000       1.03180000
H        3.59180000       2.56150000       0.60760000
H        4.83950000       1.74860000      -1.59320000
H        5.17810000       0.27510000      -0.64430000
