25
Properties=species:S:1:pos:R:3 gdb_104985=T pbc="F F F"
C        0.08430000       1.57260000       0.16070000
C       -0.11530000       0.09290000       0.50500000
C       -1.46030000      -0.50610000       0.08750000
C       -2.65770000       0.35320000       0.11350000
O       -2.00980000       0.04100000      -1.12490000
C       -1.58390000      -2.04680000       0.18970000
C       -1.17630000      -2.52570000       1.59700000
C       -3.02510000      -2.51530000      -0.09100000
C       -0.66270000      -2.68760000      -0.87160000
H        1.12310000       1.86280000       0.34310000
H       -0.14800000       1.76030000      -0.89020000
H       -0.54550000       2.22730000       0.77070000
H        0.68370000      -0.48560000       0.02860000
H        0.00890000      -0.05390000       1.58380000
H       -3.64710000      -0.07700000       0.23980000
H       -2.57310000       1.39090000       0.42890000
H       -1.77020000      -2.03000000       2.37310000
H       -1.34510000      -3.60380000       1.68860000
H       -0.11950000      -2.34090000       1.80840000
H       -3.40030000      -2.08980000      -1.02550000
H       -3.04800000      -3.60580000      -0.18120000
H       -3.70860000      -2.24240000       0.71890000
H        0.39310000      -2.46180000      -0.69760000
H       -0.76910000      -3.77720000      -0.85560000
H       -0.92640000      -2.33390000      -1.87270000
