21
Properties=species:S:1:pos:R:3 gdb_70055=T pbc="F F F"
C        0.01690000       1.58270000       0.15590000
C        0.06360000       0.07680000       0.03220000
C       -0.85100000      -0.75310000       0.89650000
C        0.64760000      -0.81290000       1.15010000
C        1.30680000      -1.97960000       0.47620000
C        1.28800000      -1.79700000      -0.84560000
C        0.98880000      -2.51380000      -2.14440000
C       -0.15480000      -1.44480000      -2.31300000
C        0.58830000      -0.52940000      -1.26390000
H        0.97330000       2.03420000      -0.13260000
H       -0.75880000       2.00920000      -0.49170000
H       -0.20290000       1.89640000       1.18130000
H       -1.45700000      -0.20380000       1.61090000
H       -1.33150000      -1.63840000       0.49200000
H        1.03440000      -0.38820000       2.07150000
H        1.56540000      -2.89140000       1.00360000
H        1.76460000      -2.38330000      -2.90650000
H        0.70930000      -3.56860000      -2.09770000
H       -0.29520000      -1.02870000      -3.31340000
H       -1.10850000      -1.81540000      -1.93120000
H        1.23180000       0.18320000      -1.79640000
