20
Properties=species:S:1:pos:R:3 gdb_74472=T pbc="F F F"
C       -0.03540000       1.50310000       0.08060000
C       -0.01880000       0.01060000       0.00070000
C        0.03870000      -0.75770000      -1.09590000
C        0.04190000      -2.21290000      -0.77390000
C       -0.74070000      -3.22300000      -1.59050000
C        0.76270000      -3.23510000      -1.62400000
C        0.05310000      -2.26790000       0.73390000
N        1.25140000      -1.65110000       1.35170000
C       -0.01300000      -0.86400000       1.21880000
H        0.84790000       1.88100000       0.61120000
H       -0.05510000       1.95830000      -0.91350000
H       -0.91160000       1.86430000       0.63470000
H        0.11300000      -0.38890000      -2.11400000
H       -1.24880000      -4.01570000      -1.04980000
H       -1.27690000      -2.86410000      -2.46270000
H        1.25950000      -2.88130000      -2.52110000
H        1.28790000      -4.03280000      -1.11000000
H       -0.43880000      -3.08710000       1.24890000
H        1.31340000      -1.99130000       2.31100000
H       -0.53840000      -0.57010000       2.12240000
