23
Properties=species:S:1:pos:R:3 gdb_122674=T pbc="F F F"
C        0.13680000       1.02090000      -1.21940000
C       -0.15010000      -0.20910000      -0.36640000
O        1.03060000      -0.97660000      -0.13900000
C        1.09680000      -2.24100000      -0.75260000
C        1.51460000      -2.22390000      -2.21880000
C        1.80780000      -3.62860000      -2.80000000
C        1.18120000      -3.58930000      -4.21770000
C        0.70330000      -2.13120000      -4.34790000
O        0.45620000      -1.69900000      -3.01940000
H        0.93760000       1.61720000      -0.77180000
H        0.43440000       0.72260000      -2.22700000
H       -0.75840000       1.64880000      -1.29120000
H       -0.52560000       0.09630000       0.61980000
H       -0.92090000      -0.82780000      -0.84120000
H        1.84990000      -2.80980000      -0.19360000
H        0.13860000      -2.77920000      -0.67050000
H        2.40070000      -1.57670000      -2.32150000
H        2.88100000      -3.83220000      -2.81920000
H        1.33950000      -4.40450000      -2.18610000
H        1.89050000      -3.86100000      -5.00310000
H        0.33400000      -4.27650000      -4.28500000
H        1.48150000      -1.50690000      -4.81710000
H       -0.22120000      -2.01390000      -4.91880000
