20
Properties=species:S:1:pos:R:3 gdb_55475=T pbc="F F F"
O       -0.26310000      -0.12740000       0.04390000
C       -0.05720000       1.20280000       0.01380000
O        1.03410000       1.68910000      -0.10310000
C       -1.35090000       2.02430000       0.08090000
C       -1.77990000       2.36070000      -1.36240000
C       -3.16030000       3.02410000      -1.40110000
C       -4.18890000       2.14630000      -0.67860000
C       -3.72640000       1.85800000       0.74850000
N       -2.39400000       1.23300000       0.75030000
H       -1.22860000      -0.24130000       0.16290000
H       -2.11590000       1.07700000       1.71530000
H       -1.11650000       2.96130000       0.60850000
H       -1.01250000       2.99890000      -1.80850000
H       -1.80750000       1.43030000      -1.94370000
H       -3.11100000       4.00740000      -0.91370000
H       -3.46150000       3.20170000      -2.43870000
H       -5.16900000       2.63330000      -0.65110000
H       -4.31020000       1.19820000      -1.21700000
H       -3.72710000       2.80240000       1.32110000
H       -4.41780000       1.17430000       1.25140000
