17
Properties=species:S:1:pos:R:3 gdb_108296=T pbc="F F F"
O       -0.01700000       1.48530000      -0.02370000
C        0.08650000       0.08060000       0.12880000
C       -1.26700000      -0.56950000       0.03510000
C       -2.33600000      -0.42270000       1.13670000
N       -2.76240000      -1.83810000       0.92050000
C       -1.63860000      -2.07440000      -0.02850000
C       -2.06920000      -1.75660000      -1.44830000
N       -2.48140000      -2.41620000      -2.42750000
O       -1.83380000      -0.39000000      -1.31190000
H       -0.42350000       1.64290000      -0.88390000
H        0.75820000      -0.36510000      -0.62100000
H        0.52060000      -0.09710000       1.11790000
H       -1.89010000      -0.22870000       2.11930000
H       -3.12100000       0.31380000       0.94580000
H       -2.69750000      -2.41080000       1.75260000
H       -0.97870000      -2.92260000       0.15050000
H       -2.68630000      -1.81550000      -3.22830000
