16
Properties=species:S:1:pos:R:3 gdb_40489=T pbc="F F F"
O       -0.32190000       1.16320000      -0.18840000
C        1.04900000       1.15920000       0.21570000
C        0.28460000      -0.09120000       0.12710000
C       -0.20690000      -0.77180000       1.34680000
O       -0.22040000      -0.07970000       2.62910000
C       -0.74680000      -1.40030000       2.95050000
C       -1.53720000      -1.55390000       1.61140000
N       -0.91000000      -2.85630000       1.21250000
C        0.18970000      -2.15890000       1.95320000
H        1.77040000       1.40040000      -0.56350000
H        1.24360000       1.58540000       1.19720000
H        0.43570000      -0.75780000      -0.72180000
H       -1.02580000      -1.61500000       3.98260000
H       -2.55820000      -1.26350000       1.36580000
H       -1.28870000      -3.61980000       1.77790000
H        1.18360000      -2.57840000       2.11200000
