15
Properties=species:S:1:pos:R:3 gdb_129639=T pbc="F F F"
N       -0.09790000       1.41270000      -0.10940000
C       -0.06090000       0.01880000      -0.07370000
C       -1.07860000      -0.88220000       0.03110000
C       -2.55830000      -0.69170000       0.04550000
O       -2.96520000       0.30320000      -0.89390000
O       -0.58280000      -2.14510000       0.10540000
N        0.80660000      -2.08980000       0.05300000
C        1.09420000      -0.81620000      -0.05180000
O        2.35470000      -0.35530000      -0.14200000
H        0.68520000       1.81370000      -0.60840000
H       -0.97790000       1.75460000      -0.47560000
H       -3.05140000      -1.65780000      -0.12930000
H       -2.90110000      -0.31920000       1.01740000
H       -2.72050000      -0.01350000      -1.77050000
H        2.95000000      -1.11590000      -0.11330000
