19
Properties=species:S:1:pos:R:3 gdb_96994=T pbc="F F F"
C       -0.24080000       1.43020000      -0.08100000
N       -0.33010000      -0.00810000      -0.29170000
C        0.54980000      -0.58770000      -0.95970000
O        1.67040000      -0.08180000      -1.62600000
C        1.99050000      -1.38730000      -2.18350000
C        2.94850000      -2.20980000      -1.30760000
N        1.80850000      -2.64090000      -0.44630000
C        0.81600000      -2.02390000      -1.38450000
C       -0.31670000      -2.87960000      -1.88420000
H        0.57230000       1.91390000      -0.63470000
H       -1.19070000       1.89270000      -0.36940000
H       -0.10100000       1.62670000       0.98800000
H        2.11100000      -1.34520000      -3.26540000
H        3.42240000      -3.02420000      -1.86900000
H        3.71970000      -1.64010000      -0.78040000
H        1.70800000      -3.64820000      -0.39130000
H       -0.97230000      -3.14900000      -1.04940000
H       -0.92140000      -2.34170000      -2.61970000
H        0.05540000      -3.80110000      -2.34450000
