14
Properties=species:S:1:pos:R:3 gdb_124004=T pbc="F F F"
C        0.11090000       1.45050000       0.30460000
N        1.08650000       2.14900000      -0.54830000
C        2.17810000       1.38680000      -0.90740000
C        2.12880000       0.02440000      -1.00180000
O        3.30710000      -0.39950000      -1.46450000
N        4.10360000       0.76850000      -1.65460000
N        3.41010000       1.78570000      -1.32350000
C        0.93370000      -0.71010000      -0.68910000
C       -0.05230000      -0.00330000      -0.10990000
H        0.39210000       1.48300000       1.37640000
H       -0.84860000       1.97060000       0.21990000
H        1.29440000       3.09780000      -0.27330000
H        0.83390000      -1.75940000      -0.93770000
H       -0.99190000      -0.47820000       0.15020000
