18
Properties=species:S:1:pos:R:3 gdb_133809=T pbc="F F F"
C        0.05110000       1.46680000       0.00830000
C       -0.03570000      -0.06130000       0.00180000
C       -1.47330000      -0.55830000       0.01320000
O       -1.46270000      -1.97570000       0.00610000
C       -2.74080000      -2.53770000       0.01570000
C       -2.59470000      -4.05070000       0.00610000
F       -1.92970000      -4.49360000       1.07750000
F       -3.81450000      -4.61480000       0.01530000
F       -1.95140000      -4.48190000      -1.08310000
H        1.09300000       1.79850000       0.00000000
H       -0.44170000       1.89970000      -0.86920000
H       -0.42490000       1.89110000       0.89920000
H        0.46520000      -0.46830000      -0.88370000
H        0.48210000      -0.47680000       0.87350000
H       -2.00410000      -0.18930000       0.90750000
H       -2.02120000      -0.18060000      -0.86710000
H       -3.31400000      -2.26090000       0.91440000
H       -3.33160000      -2.25130000      -0.86850000
