11
Properties=species:S:1:pos:R:3 gdb_13=T pbc="F F F"
C       -0.03110000       1.54080000       0.03190000
C        0.01220000       0.01090000      -0.01600000
C        0.72170000      -0.52580000      -1.26230000
H        0.97960000       1.96460000       0.03100000
H       -0.55840000       1.94830000      -0.83820000
H       -0.54250000       1.90150000       0.93010000
H        0.51520000      -0.36840000       0.88230000
H       -1.01070000      -0.38460000       0.02050000
H        1.75850000      -0.17380000      -1.30870000
H        0.74090000      -1.62020000      -1.27520000
H        0.22020000      -0.19050000      -2.17730000
