15
Properties=species:S:1:pos:R:3 gdb_23516=T pbc="F F F"
O       -0.12320000       1.34470000      -0.03580000
N        0.02460000      -0.05550000      -0.06440000
C       -1.09700000      -0.63790000      -0.05730000
C       -1.47930000      -2.09540000       0.06150000
C       -2.53370000      -2.30890000      -1.04950000
C       -3.70070000      -2.14330000      -0.15330000
C       -2.72750000      -1.63250000       0.93940000
C       -2.56280000      -0.30590000       0.11820000
N       -3.29610000      -1.00170000      -1.02970000
H        0.79280000       1.64290000      -0.04250000
H       -0.78920000      -2.89030000       0.32790000
H       -2.43190000      -2.81110000      -2.00250000
H       -4.69520000      -2.57090000      -0.15210000
H       -2.76380000      -1.71550000       2.02130000
H       -2.95010000       0.67700000       0.36670000
