16
Properties=species:S:1:pos:R:3 gdb_53544=T pbc="F F F"
C        0.05150000       1.44860000       0.29890000
C        0.04000000       0.00950000       0.08330000
C        0.03080000      -1.18010000      -0.09610000
C       -0.01460000      -2.62000000      -0.31650000
C       -1.41490000      -3.20380000      -0.14780000
C       -1.60810000      -4.57220000       0.37280000
O       -1.84940000      -3.43080000       1.19180000
C       -2.43270000      -2.66410000      -1.03650000
N       -3.22510000      -2.24700000      -1.76650000
H        1.06800000       1.85060000       0.22840000
H       -0.56340000       1.96370000      -0.44670000
H       -0.34040000       1.70390000       1.28920000
H        0.34370000      -2.86470000      -1.32500000
H        0.64010000      -3.14160000       0.39110000
H       -2.48960000      -5.13790000       0.08000000
H       -0.72680000      -5.15860000       0.62810000
