14
Properties=species:S:1:pos:R:3 gdb_13737=T pbc="F F F"
C        0.06240000       1.52730000      -0.57830000
C       -0.00130000       0.24170000       0.22230000
O        0.93100000      -0.20160000       0.84480000
C       -1.34440000      -0.45570000       0.20240000
O       -1.39920000      -1.78470000       0.68770000
C       -2.04440000      -0.78910000       1.47900000
C       -1.50160000      -0.48380000       2.77320000
C       -1.11160000      -0.22020000       3.87840000
H        1.02780000       2.00940000      -0.42360000
H       -0.07410000       1.31470000      -1.64530000
H       -0.74580000       2.20640000      -0.28260000
H       -1.97790000      -0.25020000      -0.66230000
H       -3.13340000      -0.82300000       1.43430000
H       -0.74230000       0.00570000       4.84850000
