14
Properties=species:S:1:pos:R:3 gdb_21060=T pbc="F F F"
C        0.07590000       1.46140000       0.00410000
N       -0.00380000       0.00920000       0.00400000
N        0.03200000      -0.59910000      -1.19210000
C        0.05510000      -1.89530000      -1.20490000
C        0.05600000      -2.72750000      -0.00900000
N        0.06640000      -4.01240000      -0.09510000
C        0.04750000      -1.90430000       1.19430000
N        0.02490000      -0.60620000       1.18940000
H        1.11540000       1.79810000      -0.07860000
H       -0.49120000       1.84120000      -0.84600000
H       -0.34810000       1.82490000       0.93930000
H        0.07340000      -2.37090000      -2.18050000
H        0.06670000      -4.43160000       0.83810000
H        0.05950000      -2.37110000       2.17640000
