16
Properties=species:S:1:pos:R:3 gdb_34005=T pbc="F F F"
C        0.14060000      -1.21450000      -0.13810000
C        0.06520000      -0.02210000      -0.00620000
C        0.01070000       1.40870000       0.13890000
C        0.24380000       2.27080000      -1.10650000
C        1.29150000       2.21350000      -0.03860000
C        1.48430000       3.34720000       0.93990000
O        0.24970000       3.88690000       1.43880000
C       -0.77880000       3.02120000       1.61100000
N       -0.96410000       1.88540000       1.08470000
H        0.19280000      -2.26910000      -0.24930000
H        0.43580000       1.75340000      -2.03880000
H       -0.37570000       3.15770000      -1.18670000
H        2.19680000       1.65560000      -0.25480000
H        2.07260000       2.99340000       1.79650000
H        2.01090000       4.19420000       0.48990000
H       -1.51900000       3.44420000       2.28660000
