17
Properties=species:S:1:pos:R:3 gdb_98120=T pbc="F F F"
C       -0.06590000       1.62580000       0.01240000
C       -0.02780000       0.10080000       0.00380000
C       -1.39340000      -0.53450000       0.01280000
O       -2.43700000       0.08180000       0.02660000
C       -1.40990000      -2.08700000       0.00400000
O       -0.38860000      -2.73150000      -0.00960000
N       -2.70420000      -2.55350000       0.01470000
C       -3.17240000      -3.86370000       0.01230000
N       -2.41980000      -4.88240000       0.00000000
H        0.94830000       2.03330000       0.00540000
H       -0.59810000       2.01090000      -0.86150000
H       -0.58220000       2.00140000       0.89980000
H        0.50990000      -0.29740000      -0.86660000
H        0.52550000      -0.30660000       0.86000000
H       -3.38870000      -1.80720000       0.02560000
H       -4.26950000      -3.87820000       0.02240000
H       -2.98760000      -5.72850000       0.00080000
