20
Properties=species:S:1:pos:R:3 gdb_19195=T pbc="F F F"
C        0.12630000       1.59680000       0.92890000
C        0.10410000       0.12440000       0.55180000
C        0.74800000      -0.40540000      -0.78100000
C        2.18360000       0.10430000      -0.62210000
O        2.41570000      -0.22290000       0.77130000
C        1.16710000      -0.84270000       1.13750000
C        0.89750000      -1.79420000      -0.06150000
C       -0.29980000      -2.73490000      -0.03230000
H        1.14740000       1.97720000       1.00740000
H       -0.41440000       2.20360000       0.19370000
H       -0.35750000       1.75090000       1.89960000
H       -0.90240000      -0.28020000       0.66450000
H        0.26940000      -0.28990000      -1.75410000
H        2.90330000      -0.42450000      -1.25790000
H        2.29820000       1.18250000      -0.78030000
H        1.21010000      -1.15780000       2.18020000
H        1.79190000      -2.35420000      -0.35510000
H       -1.23570000      -2.24480000       0.24810000
H       -0.45050000      -3.18820000      -1.01830000
H       -0.12950000      -3.55070000       0.67890000
