19
Properties=species:S:1:pos:R:3 gdb_115174=T pbc="F F F"
C        0.20580000       1.34840000       0.24440000
O        0.00180000      -0.03460000       0.05760000
C        0.56580000      -0.55330000      -1.12810000
C        2.07000000      -0.84950000      -0.97120000
O        2.15380000      -2.15460000      -0.38230000
C        0.98480000      -2.83400000      -0.55400000
O        0.81910000      -3.94250000      -0.13750000
C        0.01130000      -1.96600000      -1.35310000
C       -1.45260000      -2.21880000      -1.01040000
H        1.26970000       1.60810000       0.34740000
H       -0.21300000       1.93250000      -0.58940000
H       -0.30870000       1.62610000       1.16670000
H        0.37360000       0.12480000      -1.97160000
H        2.58280000      -0.85550000      -1.94090000
H        2.57670000      -0.14730000      -0.30610000
H        0.19340000      -2.22170000      -2.40690000
H       -1.67410000      -1.88630000       0.00460000
H       -2.11400000      -1.68630000      -1.69970000
H       -1.66070000      -3.28910000      -1.07880000
