18
Properties=species:S:1:pos:R:3 gdb_70482=T pbc="F F F"
C       -0.31940000       1.42150000       0.10670000
C        0.11330000       0.00390000      -0.10470000
N       -0.72020000      -1.14720000       0.33200000
C        0.67380000      -1.03290000       0.81940000
C        1.53510000      -1.66090000      -0.27860000
C        1.03840000      -0.50520000      -1.21880000
O        0.55890000      -0.74410000      -2.53810000
C       -0.42840000      -1.64810000      -2.75450000
O       -0.84630000      -1.85100000      -3.85670000
H        0.52100000       2.11200000      -0.01940000
H       -1.09700000       1.70720000      -0.61050000
H       -0.72380000       1.56330000       1.11480000
H       -1.33730000      -0.79860000       1.06540000
H        0.89140000      -0.95670000       1.87710000
H        2.61200000      -1.62280000      -0.10740000
H        1.24150000      -2.67550000      -0.55440000
H        1.84600000       0.21460000      -1.36690000
H       -0.78820000      -2.13640000      -1.83750000
