17
Properties=species:S:1:pos:R:3 gdb_41245=T pbc="F F F"
C       -0.01630000       1.51560000      -0.19680000
C        1.53710000       1.53440000       0.10310000
C        1.26470000       0.25880000       0.89370000
O        1.88770000      -1.03800000       1.09930000
C        0.76380000      -1.27350000       1.96380000
C       -0.66710000      -0.76730000       1.27340000
O       -0.76520000       0.23930000       2.31520000
C        0.65550000       0.18320000       2.37270000
C       -0.01190000      -0.01820000       0.11600000
H       -0.58430000       2.08450000       0.54010000
H       -0.31940000       1.80600000      -1.20290000
H        2.11840000       1.35290000      -0.80500000
H        1.95830000       2.38770000       0.64010000
H        0.81730000      -2.16430000       2.58540000
H       -1.55770000      -1.38470000       1.17380000
H        1.13640000       0.68880000       3.20860000
H        0.17530000      -0.63300000      -0.76570000
