20
Properties=species:S:1:pos:R:3 gdb_40747=T pbc="F F F"
C       -0.38320000       1.19640000      -0.28130000
C        1.03970000       1.05920000       0.13100000
N        0.16170000      -0.10540000       0.09640000
C       -0.20390000      -0.70680000       1.36490000
C       -0.69290000       0.12420000       2.61680000
C       -2.00960000      -0.67120000       2.59440000
O       -3.01250000      -0.03780000       1.76780000
C       -2.72270000      -0.92670000       0.65890000
C       -1.52450000      -1.53550000       1.39440000
H       -1.06490000       1.69900000       0.39960000
H       -0.63800000       1.29930000      -1.33270000
H        1.83540000       1.07590000      -0.60870000
H        1.31300000       1.46460000       1.10390000
H        0.63870000      -1.34320000       1.65170000
H       -0.07710000      -0.05280000       3.50290000
H       -0.83250000       1.20050000       2.49700000
H       -2.42090000      -1.05520000       3.53170000
H       -3.54470000      -1.63730000       0.50100000
H       -2.53000000      -0.39070000      -0.27480000
H       -1.42500000      -2.61990000       1.39760000
