20
Properties=species:S:1:pos:R:3 gdb_36800=T pbc="F F F"
N       -0.11400000      -1.11590000      -0.08270000
C       -0.06560000       0.03860000      -0.07900000
C        0.02130000       1.49600000      -0.07210000
C        1.47690000       1.99600000      -0.02840000
N        1.49400000       3.44860000       0.00300000
C        2.82630000       4.02030000       0.17980000
C        2.76780000       5.52640000       0.12910000
C        3.94980000       6.31260000      -0.29180000
N        2.76880000       6.22670000      -1.17130000
H       -0.48220000       1.87870000      -0.96830000
H       -0.52380000       1.89100000       0.79110000
H        1.95290000       1.62590000       0.88670000
H        2.03890000       1.55940000      -0.87320000
H        1.08310000       3.81960000      -0.84920000
H        3.20360000       3.69600000       1.15910000
H        3.55730000       3.66180000      -0.57220000
H        2.08130000       5.96740000       0.84840000
H        4.13140000       7.29300000       0.13810000
H        4.84860000       5.77000000      -0.57480000
H        2.96120000       5.56150000      -1.91850000
