20
Properties=species:S:1:pos:R:3 gdb_83777=T pbc="F F F"
C        0.06250000       1.38940000      -0.24750000
N        0.02300000      -0.03670000       0.04480000
C       -1.25200000      -0.48820000       0.70720000
C       -1.38590000      -1.96540000       0.35620000
O       -0.12850000      -2.60660000       0.57960000
C        0.60780000      -1.94940000       1.59090000
C       -0.27850000      -1.65300000       2.83370000
C       -0.62790000      -0.31730000       2.15250000
C        0.68260000      -0.38090000       1.32240000
H        1.07660000       1.66640000      -0.55440000
H       -0.61020000       1.60540000      -1.08420000
H       -0.22520000       2.04180000       0.59760000
H       -2.14540000       0.09000000       0.45850000
H       -2.17920000      -2.44120000       0.95290000
H       -1.62340000      -2.09280000      -0.70420000
H        1.53980000      -2.50170000       1.71610000
H       -1.06450000      -2.37640000       3.06750000
H        0.32650000      -1.48000000       3.72910000
H       -0.96550000       0.54390000       2.72960000
H        1.62050000       0.12230000       1.56760000
