15
Properties=species:S:1:pos:R:3 gdb_43593=T pbc="F F F"
O       -0.01790000       0.04710000       0.25400000
C        0.02900000       1.21740000       0.01790000
O       -1.10560000       1.95310000      -0.22830000
C       -0.78860000       3.25840000      -0.76510000
C       -1.63380000       4.27290000      -0.14830000
C       -2.31680000       5.12990000       0.34230000
C        0.71260000       3.45350000      -0.53390000
C        1.17300000       3.30610000       0.87840000
C        1.22140000       2.11470000      -0.06490000
H       -0.99310000       3.22170000      -1.84270000
H       -2.92720000       5.88240000       0.77810000
H        1.25600000       4.07300000      -1.23510000
H        2.12920000       3.74370000       1.13960000
H        0.43570000       3.31040000       1.67420000
H        2.16750000       1.67710000      -0.35110000
