22
Properties=species:S:1:pos:R:3 gdb_10955=T pbc="F F F"
C       -0.00320000       1.54870000       0.06470000
C       -0.15500000       0.02890000      -0.05880000
C        0.68080000      -0.56270000      -1.19090000
C        2.24700000      -0.57630000      -1.07310000
C        2.24350000      -2.09240000      -1.33480000
C        3.24390000      -2.80960000      -2.19460000
C        1.44270000      -2.76840000      -0.25750000
C        0.71080000      -2.08580000      -1.38590000
H        1.03780000       1.82940000       0.25910000
H       -0.31310000       2.05370000      -0.85730000
H       -0.61220000       1.94670000       0.88240000
H        0.12020000      -0.44450000       0.89200000
H       -1.21050000      -0.22250000      -0.22830000
H        0.39780000      -0.07530000      -2.13100000
H        2.73510000      -0.00020000      -1.86350000
H        2.66720000      -0.26470000      -0.10950000
H        4.22540000      -2.86100000      -1.70650000
H        2.92590000      -3.83730000      -2.40050000
H        3.38170000      -2.30310000      -3.15730000
H        1.43260000      -3.85360000      -0.30120000
H        1.41580000      -2.37140000       0.75500000
H        0.05020000      -2.64300000      -2.04180000
