19
Properties=species:S:1:pos:R:3 gdb_116753=T pbc="F F F"
C        0.00490000       1.49660000      -0.45260000
N       -0.14430000       0.05680000      -0.53980000
C        0.88560000      -0.77010000      -0.86550000
O        2.01660000      -0.38210000      -1.09800000
C        0.53790000      -2.27050000      -0.88020000
N        0.98340000      -2.89710000      -2.10640000
C        2.21870000      -3.14030000      -2.19090000
O        2.72570000      -3.66490000      -3.32010000
C        4.13170000      -3.88540000      -3.31300000
H        1.06110000       1.72220000      -0.60310000
H       -0.58110000       2.00800000      -1.22470000
H       -0.30800000       1.86820000       0.52910000
H       -1.06110000      -0.34220000      -0.42750000
H        1.01610000      -2.69340000       0.01840000
H       -0.54050000      -2.42730000      -0.77400000
H        2.95490000      -2.95880000      -1.39710000
H        4.42400000      -4.59300000      -2.52750000
H        4.38040000      -4.31050000      -4.28610000
H        4.68140000      -2.94670000      -3.17820000
