18
Properties=species:S:1:pos:R:3 gdb_63767=T pbc="F F F"
C       -0.26100000       1.57590000       0.00050000
C        0.01570000       0.08100000       0.00380000
O       -1.19020000      -0.65120000      -0.18000000
C        1.16220000      -0.50020000      -0.91000000
C        1.72530000      -1.23710000       0.31250000
C        2.16070000      -0.24790000       1.37150000
C        2.77170000       1.01790000       1.05890000
N        3.28130000       2.02480000       0.80230000
C        0.68940000      -0.58390000       1.21480000
H        0.64060000       2.16700000       0.17020000
H       -0.67330000       1.87690000      -0.97140000
H       -0.99770000       1.82200000       0.77140000
H       -1.62750000      -0.30190000      -0.96430000
H        0.74210000      -1.17410000      -1.65760000
H        1.83940000       0.21330000      -1.38770000
H        2.10820000      -2.24960000       0.32840000
H        2.59760000      -0.71320000       2.25090000
H        0.13730000      -0.99740000       2.05010000
