17
Properties=species:S:1:pos:R:3 gdb_10547=T pbc="F F F"
C       -0.14760000       1.37270000      -0.06860000
O       -0.27040000      -0.02160000      -0.23680000
C        0.79860000      -0.58410000      -0.95670000
C        0.63950000      -2.09040000      -0.96000000
C       -0.35600000      -2.70940000      -1.92790000
C        1.11140000      -2.87080000      -2.17960000
C        0.79400000      -2.72240000       0.32710000
N        0.93220000      -3.23480000       1.35480000
H        0.76940000       1.63700000       0.48020000
H       -0.13600000       1.90130000      -1.03500000
H       -1.01370000       1.70650000       0.50660000
H        0.80720000      -0.22120000      -1.99890000
H        1.76420000      -0.30630000      -0.50340000
H       -0.91710000      -3.56950000      -1.58430000
H       -0.91850000      -2.01370000      -2.53950000
H        1.57210000      -2.29510000      -2.97470000
H        1.56210000      -3.83940000      -2.00200000
