20
Properties=species:S:1:pos:R:3 gdb_5957=T pbc="F F F"
C       -0.13150000       1.34620000       0.10780000
O        0.00950000      -0.04720000      -0.06450000
C        0.69950000      -0.51380000      -1.23350000
C        0.03280000      -0.01710000      -2.52680000
C        2.18120000      -0.10990000      -1.19500000
C        0.58470000      -2.05060000      -1.12450000
C       -0.84160000      -2.55890000      -1.13290000
O       -1.23860000      -3.45080000      -1.84080000
H        0.83420000       1.86710000       0.16120000
H       -0.73490000       1.81180000      -0.68310000
H       -0.64840000       1.48590000       1.06060000
H        0.16880000       1.05900000      -2.66550000
H        0.47340000      -0.51910000      -3.39320000
H       -1.04040000      -0.23030000      -2.52210000
H        2.63510000      -0.41890000      -0.24900000
H        2.72830000      -0.58660000      -2.01380000
H        2.30750000       0.97130000      -1.30310000
H        1.13570000      -2.54300000      -1.92970000
H        1.02940000      -2.34680000      -0.16480000
H       -1.51530000      -2.04870000      -0.41360000
