14
Properties=species:S:1:pos:R:3 gdb_25246=T pbc="F F F"
N       -0.03630000       1.33350000       0.01140000
C       -0.05550000       0.06840000       0.00390000
O        1.06340000      -0.75150000      -0.00690000
C        0.71480000      -2.16190000      -0.01350000
C       -0.77920000      -2.13420000      -0.00550000
C       -1.18350000      -0.83520000       0.00440000
N       -2.55170000      -0.86780000       0.01150000
C       -2.88830000      -2.19730000       0.00550000
N       -1.83440000      -2.99870000      -0.00500000
H        0.92400000       1.67910000       0.00850000
H        1.15050000      -2.62100000      -0.90780000
H        1.15990000      -2.63170000       0.87060000
H       -3.18040000      -0.08160000       0.01950000
H       -3.91850000      -2.52160000       0.00910000
