18
Properties=species:S:1:pos:R:3 gdb_55305=T pbc="F F F"
N       -0.46620000       1.41400000      -0.33980000
C       -0.02790000       0.17970000       0.09230000
O        1.11060000      -0.02150000       0.44700000
C       -1.15330000      -0.85040000       0.18500000
N       -0.73810000      -2.24250000       0.41280000
C       -1.75140000      -2.43680000       1.48200000
C       -1.91960000      -0.91830000       1.52610000
C       -1.83790000       0.01800000       2.66130000
N       -3.11090000      -0.20060000       1.93230000
H        0.24650000       2.11120000      -0.49470000
H       -1.29900000       1.48920000      -0.90060000
H       -1.85660000      -0.71390000      -0.65510000
H       -0.81960000      -2.85480000      -0.38960000
H       -2.67480000      -2.94160000       1.16650000
H       -1.36200000      -2.92700000       2.38030000
H       -1.82440000      -0.36440000       3.67800000
H       -1.30760000       0.95480000       2.51410000
H       -3.28940000       0.58030000       1.30400000
