20
Properties=species:S:1:pos:R:3 gdb_102501=T pbc="F F F"
C        0.16760000       1.44980000      -0.16800000
C        0.00660000      -0.06380000       0.09460000
C        0.56130000      -0.36180000       1.42100000
N        0.97080000      -0.52690000       2.48980000
C       -1.45730000      -0.59580000       0.00930000
C       -2.25230000       0.04150000      -1.14450000
O       -3.55060000      -0.51630000      -1.27910000
C       -1.48080000      -2.13120000      -0.14890000
O       -0.56350000      -2.82360000       0.67530000
H        1.20530000       1.75060000      -0.00500000
H       -0.09810000       1.69670000      -1.19800000
H       -0.46170000       2.03760000       0.50660000
H        0.60970000      -0.61180000      -0.64030000
H       -1.96020000      -0.32410000       0.94990000
H       -2.30710000       1.13090000      -1.02440000
H       -1.74710000      -0.15810000      -2.09760000
H       -4.07520000      -0.23780000      -0.52140000
H       -2.50820000      -2.49030000      -0.01470000
H       -1.18950000      -2.38170000      -1.17650000
H       -0.76740000      -2.64630000       1.59980000
