16
Properties=species:S:1:pos:R:3 gdb_20862=T pbc="F F F"
C        0.01950000       1.56340000      -0.07130000
C       -0.01400000       0.04090000       0.14890000
C       -1.38950000      -0.53740000       0.02610000
N       -2.09430000      -0.88650000       1.06860000
O       -3.28540000      -1.35110000       0.58470000
N       -3.31860000      -1.29330000      -0.78060000
C       -2.16900000      -0.79670000      -1.15030000
C       -1.81840000      -0.58750000      -2.58620000
H        1.04170000       1.93980000       0.02630000
H       -0.34380000       1.83510000      -1.06720000
H       -0.60600000       2.07460000       0.66580000
H        0.64700000      -0.45040000      -0.57500000
H        0.36820000      -0.19840000       1.14500000
H       -1.67920000       0.47510000      -2.81000000
H       -0.88540000      -1.10090000      -2.84100000
H       -2.61420000      -0.97370000      -3.22530000
