17
Properties=species:S:1:pos:R:3 gdb_94130=T pbc="F F F"
C       -0.47870000       1.35890000       0.00360000
C        0.08450000      -0.04490000      -0.10590000
C        1.46260000      -0.25190000      -0.76050000
O        1.94810000      -1.00870000       0.37000000
C        0.75860000      -0.71500000       1.15880000
C        1.05840000       0.18980000       2.26770000
C        1.30970000       0.94790000       3.16540000
C        0.10340000      -1.92560000       1.64270000
C       -0.45980000      -2.92080000       2.01130000
H        0.24960000       2.04830000       0.43860000
H       -0.75520000       1.73140000      -0.98870000
H       -1.37650000       1.37730000       0.62930000
H       -0.66120000      -0.73200000      -0.50990000
H        1.48830000      -0.84020000      -1.68340000
H        2.03800000       0.67200000      -0.90360000
H        1.53590000       1.60570000       3.96840000
H       -0.94600000      -3.80290000       2.34900000
