20
Properties=species:S:1:pos:R:3 gdb_101929=T pbc="F F F"
C       -0.83630000       0.81280000       0.19150000
O       -0.27760000      -0.47840000       0.03590000
C        0.68750000      -0.55960000      -1.00490000
C        1.54430000      -1.78010000      -0.75820000
C        2.88550000      -1.88970000      -1.43340000
C        2.80810000      -1.66370000       0.05510000
C        0.04080000      -0.64720000      -2.40340000
N       -1.20750000      -1.18520000      -2.39790000
O        0.63450000      -0.30010000      -3.40580000
H       -0.06250000       1.55520000       0.43480000
H       -1.36650000       1.14600000      -0.71210000
H       -1.54680000       0.75800000       1.01970000
H        1.32260000       0.33760000      -1.01790000
H        0.96880000      -2.69480000      -0.64860000
H        3.19320000      -2.86440000      -1.79440000
H        3.19080000      -1.06550000      -2.06750000
H        3.07360000      -0.68360000       0.43750000
H        3.06370000      -2.48280000       0.71790000
H       -1.64520000      -1.42710000      -1.52530000
H       -1.69360000      -1.31440000      -3.26910000
