20
Properties=species:S:1:pos:R:3 gdb_11562=T pbc="F F F"
C        0.08540000       1.56620000       0.07500000
C        0.02910000       0.03510000      -0.00500000
C        0.69550000      -0.47540000      -1.28390000
O       -0.00900000       0.04950000      -2.39940000
C        0.65860000      -0.64720000       1.22320000
C       -0.07820000      -0.37890000       2.51360000
C        0.59380000      -0.39040000       3.81860000
O        0.21490000       0.84130000       3.20280000
H        1.12370000       1.91040000       0.15620000
H       -0.34850000       2.00610000      -0.82550000
H       -0.45190000       1.94250000       0.94840000
H       -1.02540000      -0.27160000      -0.06180000
H        1.75270000      -0.16000000      -1.29680000
H        0.68170000      -1.57780000      -1.29420000
H        0.46470000      -0.19650000      -3.19880000
H        0.67710000      -1.73490000       1.06520000
H        1.70040000      -0.32330000       1.34230000
H       -1.14290000      -0.62310000       2.49740000
H        0.03780000      -0.65710000       4.71650000
H        1.66610000      -0.57790000       3.86610000
