13
Properties=species:S:1:pos:R:3 gdb_131296=T pbc="F F F"
O        0.25940000       1.27300000      -0.13410000
C        0.11480000      -0.04960000      -0.07050000
N        0.26370000      -0.83590000      -1.12670000
N        0.02190000      -2.02670000      -0.57140000
C        0.07510000      -3.27970000      -1.31700000
C        1.43070000      -3.66940000      -1.68430000
C        2.53880000      -4.00810000      -1.99530000
N       -0.25340000      -1.98530000       0.71880000
N       -0.20130000      -0.71900000       1.06200000
H        0.10240000       1.62020000       0.75330000
H       -0.38770000      -4.02660000      -0.66670000
H       -0.54860000      -3.16270000      -2.20870000
H        3.52250000      -4.30290000      -2.26770000
