16
Properties=species:S:1:pos:R:3 gdb_123813=T pbc="F F F"
C       -0.37420000       1.10640000      -0.11730000
C        1.10070000       1.03330000       0.23310000
C        0.32420000      -0.21600000      -0.01270000
O        0.09160000      -1.00950000       1.13040000
C       -0.91180000      -1.88810000       1.03930000
N       -1.65100000      -2.07290000      -0.04540000
N       -2.48980000      -3.06300000       0.37620000
C       -2.21390000      -3.39940000       1.64750000
N       -1.21330000      -2.67380000       2.10830000
H       -1.05870000       1.36270000       0.68290000
H       -0.66930000       1.45370000      -1.10090000
H        1.83580000       1.33420000      -0.50450000
H        1.37480000       1.23840000       1.26150000
H        0.49440000      -0.79750000      -0.91310000
H       -3.19040000      -3.42280000      -0.24960000
H       -2.75330000      -4.16060000       2.19100000
