20
Properties=species:S:1:pos:R:3 gdb_10782=T pbc="F F F"
C        0.67750000       1.54630000       0.15540000
C        0.09580000       0.14000000       0.02780000
C        0.84600000      -0.82180000      -0.95190000
O        1.68410000      -0.28480000      -1.94880000
C        1.47670000      -1.58450000       0.25980000
C        2.94960000      -1.29120000       0.53710000
C        0.44970000      -0.85170000       1.18500000
O        0.87180000      -0.34620000       2.43020000
H        1.75620000       1.55510000       0.35560000
H        0.51850000       2.11210000      -0.76730000
H        0.19540000       2.08770000       0.97470000
H       -0.97690000       0.22720000      -0.16990000
H        0.14170000      -1.45860000      -1.49310000
H        2.33150000       0.29020000      -1.52930000
H        1.34290000      -2.66980000       0.21980000
H        3.17720000      -0.21940000       0.59430000
H        3.25630000      -1.73480000       1.48890000
H        3.57940000      -1.71040000      -0.25310000
H       -0.39860000      -1.49940000       1.42020000
H        1.62370000       0.23670000       2.28650000
