16
Properties=species:S:1:pos:R:3 gdb_43136=T pbc="F F F"
O        0.15540000       0.04880000       0.09810000
C        0.03330000       1.23150000       0.06130000
C       -1.06830000       2.27420000      -0.05700000
C       -0.73390000       3.00800000       1.31640000
N        0.79800000       3.00470000       1.37220000
C        0.99910000       2.47240000       0.03040000
C        1.93710000       2.36950000      -1.16600000
O        0.73510000       2.44230000      -2.01620000
C       -0.03690000       3.04720000      -0.93310000
H       -2.12140000       2.08650000      -0.26160000
H       -1.13080000       4.02770000       1.33350000
H       -1.14990000       2.45170000       2.15910000
H        1.11720000       3.96830000       1.41920000
H        2.59260000       3.23060000      -1.34310000
H        2.48000000       1.43140000      -1.30520000
H       -0.18870000       4.12030000      -1.07730000
