16
Properties=species:S:1:pos:R:3 gdb_64919=T pbc="F F F"
C       -0.01920000       1.57720000      -0.07800000
C       -0.03000000       0.07590000       0.05060000
O        1.20450000      -0.64220000      -0.13680000
C        0.64600000      -0.65450000       1.17240000
C        1.41320000       0.04670000       2.27520000
C        0.10710000      -1.94590000       1.59060000
N       -0.30280000      -2.95810000       1.96900000
C       -1.19760000      -0.61640000      -0.61630000
O       -2.16380000      -0.02460000      -1.01890000
H        0.85740000       2.02410000       0.38890000
H       -0.02640000       1.85030000      -1.13680000
H       -0.92430000       1.99250000       0.37200000
H        1.86700000       0.96650000       1.90860000
H        0.74950000       0.27790000       3.11310000
H        2.20770000      -0.61000000       2.64050000
H       -1.07600000      -1.71300000      -0.72470000
