14
Properties=species:S:1:pos:R:3 gdb_128738=T pbc="F F F"
C        0.06110000       1.37150000       0.03790000
O        0.09470000      -0.06080000       0.00070000
C        0.60420000      -0.62740000      -1.08640000
N        1.04160000       0.11260000      -2.04990000
O        1.57220000      -0.51000000      -3.18120000
N        1.64530000      -1.86580000      -3.30550000
C        1.20730000      -2.59330000      -2.34110000
C        0.62770000      -2.09630000      -1.10080000
N        0.18130000      -2.78460000      -0.11900000
H        1.07120000       1.78330000      -0.03760000
H       -0.54280000       1.76490000      -0.78450000
H       -0.38650000       1.62270000       0.99890000
H        1.29370000      -3.66550000      -2.50120000
H        0.28280000      -3.78460000      -0.31380000
