17
Properties=species:S:1:pos:R:3 gdb_34631=T pbc="F F F"
N        0.14610000      -1.12290000      -0.06290000
C        0.04000000       0.02940000       0.00020000
C       -0.01590000       1.44840000       0.06690000
C       -1.12760000       2.19750000       0.10090000
C       -0.81600000       3.66970000       0.11810000
C        0.72830000       3.72930000       0.26960000
C        1.22120000       2.29410000       0.04600000
C        2.54540000       1.77980000       0.47370000
N        2.28000000       2.04810000      -0.94990000
H       -2.13600000       1.80170000       0.09230000
H       -1.16830000       4.14040000      -0.80930000
H       -1.33650000       4.18420000       0.93340000
H        1.20060000       4.40740000      -0.44310000
H        0.99550000       4.06410000       1.27610000
H        3.25020000       2.46140000       0.94330000
H        2.61440000       0.74770000       0.80810000
H        2.11100000       1.17280000      -1.44280000
