19
Properties=species:S:1:pos:R:3 gdb_87466=T pbc="F F F"
C       -0.05720000       1.52440000      -0.02390000
C        0.01310000       0.01340000       0.03580000
C        1.34790000      -0.69940000      -0.19700000
C        0.71170000      -0.69570000       1.14840000
C        1.19000000      -0.19720000       2.53960000
C       -0.20200000      -0.69700000       3.06480000
C        0.23430000      -1.84020000       2.08230000
C        1.62760000      -1.66720000       2.72320000
O        2.54290000      -2.31120000       3.12890000
H        0.84360000       1.97750000       0.40240000
H       -0.14680000       1.87280000      -1.05870000
H       -0.91820000       1.90990000       0.53310000
H       -0.85610000      -0.49490000      -0.37670000
H        1.34750000      -1.61860000      -0.77450000
H        2.22260000      -0.07500000      -0.35530000
H        1.71330000       0.72350000       2.78620000
H       -0.27710000      -0.94780000       4.12460000
H       -1.05120000      -0.10770000       2.71610000
H       -0.30820000      -2.74410000       1.81450000
