16
Properties=species:S:1:pos:R:3 gdb_54774=T pbc="F F F"
C       -0.06590000       1.46030000      -0.14030000
C       -0.00880000      -0.05530000      -0.07580000
O        0.93700000      -0.70860000      -0.46220000
N       -1.09850000      -0.64850000       0.55730000
C       -2.55920000      -0.41530000       0.20640000
C       -2.38290000      -1.42420000      -0.97600000
C       -1.55880000      -2.04350000       0.20540000
C       -2.79200000      -1.68310000       1.07810000
O       -3.52720000      -2.13060000       1.89080000
H        0.94540000       1.84540000      -0.27210000
H       -0.66920000       1.77230000      -1.00080000
H       -0.51700000       1.88670000       0.75890000
H       -3.02220000       0.56780000       0.22520000
H       -3.26590000      -1.96190000      -1.33060000
H       -1.75980000      -1.05570000      -1.79160000
H       -0.88330000      -2.89240000       0.20820000
