20
Properties=species:S:1:pos:R:3 gdb_23003=T pbc="F F F"
C       -0.58090000       1.36520000       0.04760000
C       -0.05120000      -0.05540000       0.01800000
O        1.01390000      -0.21640000      -0.94390000
C        1.96420000      -0.59710000       0.07350000
C        0.89130000      -0.53800000       1.17680000
C        1.09070000       0.35560000       2.36460000
C        0.02170000       0.40470000       3.42510000
N        2.17240000       1.03560000       2.42120000
O        2.22790000       1.82300000       3.58130000
H        0.20870000       2.07350000       0.31310000
H       -0.96450000       1.63080000      -0.94230000
H       -1.40050000       1.46400000       0.76810000
H       -0.86830000      -0.75920000      -0.19120000
H        2.38940000      -1.58990000      -0.11370000
H        2.77130000       0.13280000       0.17960000
H        0.59380000      -1.52850000       1.53540000
H        0.43140000       0.09400000       4.39190000
H       -0.34060000       1.42890000       3.55710000
H       -0.82060000      -0.24250000       3.17230000
H        3.08160000       2.25910000       3.48920000
