16
Properties=species:S:1:pos:R:3 gdb_46868=T pbc="F F F"
O       -0.01360000      -0.03510000      -0.25140000
C       -0.02380000       1.16420000      -0.08300000
N       -1.17760000       1.89880000       0.00660000
C       -1.27260000       3.35180000      -0.00350000
C       -0.14650000       3.99030000       0.78230000
C        0.33240000       3.37570000       2.05200000
C        1.19710000       3.27410000       0.79490000
C        1.28740000       1.97680000       0.07900000
O        2.31490000       1.54520000      -0.38230000
H       -2.01910000       1.36460000      -0.16150000
H       -1.26650000       3.74370000      -1.03160000
H       -2.23710000       3.62810000       0.43750000
H       -0.10830000       5.07130000       0.69780000
H        0.70740000       4.02740000       2.83210000
H       -0.15060000       2.47230000       2.40620000
H        2.11010000       3.85720000       0.76570000
