16
Properties=species:S:1:pos:R:3 gdb_123827=T pbc="F F F"
C       -0.01610000       1.40420000       0.02200000
C        1.41900000       1.98070000       0.02850000
C        2.16180000       1.24280000      -1.03170000
C        1.73070000       0.08060000      -1.61950000
C        0.44510000      -0.57390000      -1.22150000
O       -0.01950000      -0.01200000       0.00370000
N        2.63580000      -0.31450000      -2.55550000
N        3.61730000       0.54310000      -2.57700000
N        3.33790000       1.49250000      -1.65350000
H       -0.55160000       1.69830000       0.92810000
H       -0.56390000       1.80360000      -0.84650000
H        1.38750000       3.06120000      -0.15530000
H        1.88010000       1.82950000       1.01240000
H       -0.31820000      -0.45980000      -2.00900000
H        0.57490000      -1.64440000      -1.03910000
H        3.98900000       2.24950000      -1.51940000
