12
Properties=species:S:1:pos:R:3 gdb_18420=T pbc="F F F"
O        0.02860000       0.01720000      -0.04150000
C        0.00140000       1.20400000       0.06390000
C       -1.10110000       2.28280000       0.02090000
N       -0.04020000       3.34340000      -0.17550000
C        0.79610000       3.33330000       1.03230000
C        0.27500000       3.02400000       2.34370000
N       -0.14470000       2.81390000       3.40030000
C        1.04940000       2.29020000      -0.01550000
H       -1.70840000       2.19330000      -0.88280000
H       -1.74200000       2.42660000       0.89290000
H        1.51330000       4.15000000       1.03990000
H        1.97200000       2.28430000      -0.58520000
