21
Properties=species:S:1:pos:R:3 gdb_38866=T pbc="F F F"
C       -0.04770000       1.56660000       0.01300000
C        1.39070000       2.15850000      -0.00080000
C        2.42380000       1.01540000      -0.02090000
C        2.20220000       0.14150000       1.23880000
C        0.93550000      -0.68950000       0.99870000
O        1.23990000      -1.67980000      -0.02340000
C        0.91040000      -0.67660000      -1.02500000
C        2.17090000       0.15760000      -1.28580000
C       -0.00440000       0.04030000       0.00290000
H       -0.60120000       1.90640000       0.89550000
H       -0.62230000       1.91720000      -0.85170000
H        1.53510000       2.80110000      -0.87580000
H        1.55670000       2.78970000       0.87870000
H        3.43540000       1.43240000      -0.03080000
H        3.03540000      -0.54710000       1.41320000
H        2.10180000       0.77650000       2.12780000
H        0.51960000      -1.14350000       1.90260000
H        0.47220000      -1.11930000      -1.92400000
H        2.04860000       0.80380000      -2.16390000
H        2.99950000      -0.52870000      -1.48950000
H       -1.00100000      -0.40540000       0.01240000
