19
Properties=species:S:1:pos:R:3 gdb_57071=T pbc="F F F"
O       -0.08990000       1.47790000       0.28350000
C        0.01170000       0.05670000       0.08390000
C        0.70100000      -0.24830000      -1.16960000
C        1.30920000      -0.47830000      -2.18090000
C        0.65950000      -0.66090000       1.27780000
C        2.05940000      -0.13990000       1.71250000
C        1.40650000       0.61250000       2.90590000
C        0.09740000      -0.19210000       2.66760000
O       -1.13760000       0.46740000       2.71630000
H        0.77290000       1.86580000       0.10100000
H       -1.03020000      -0.27720000       0.01810000
H        1.82610000      -0.68720000      -3.08510000
H        0.59690000      -1.73610000       1.08580000
H        2.72010000      -0.95070000       2.02660000
H        2.60430000       0.46560000       0.98230000
H        1.87990000       0.51560000       3.88570000
H        1.25420000       1.67440000       2.69470000
H        0.01630000      -1.03940000       3.35490000
H       -1.07280000       1.21540000       2.10700000
