20
Properties=species:S:1:pos:R:3 gdb_39298=T pbc="F F F"
C        0.04200000       1.45600000       0.18000000
C        1.57070000       1.33640000       0.00780000
O        2.20100000       0.99950000       1.23640000
C        1.36110000       0.18970000       2.06570000
C        0.45780000      -0.74320000       1.22780000
C        1.24990000      -1.90690000       0.61290000
C        2.04750000      -1.22650000      -0.52840000
C        1.23520000       0.04230000      -0.79370000
N       -0.05590000      -0.03770000       0.01260000
H       -0.36000000       1.87380000       1.10580000
H       -0.44000000       1.94650000      -0.67010000
H        2.16150000       2.13890000      -0.44270000
H        2.02390000      -0.38000000       2.72430000
H        0.74270000       0.83500000       2.70500000
H       -0.37740000      -1.08790000       1.84730000
H        1.88240000      -2.41660000       1.34410000
H        0.55120000      -2.64100000       0.20130000
H        3.05950000      -0.96910000      -0.20470000
H        2.12530000      -1.86000000      -1.41470000
H        1.02000000       0.24170000      -1.84730000
