14
Properties=species:S:1:pos:R:3 gdb_10046=T pbc="F F F"
C       -0.18320000       1.42470000      -0.08110000
O        0.13840000       0.04870000       0.07130000
C        0.69660000      -0.54320000      -1.06730000
C        1.23730000      -1.92610000      -0.64950000
C        2.34110000      -1.80090000       0.29840000
N        3.22680000      -1.70230000       1.03270000
C       -0.30040000      -0.69990000      -2.15350000
N       -1.08440000      -0.81170000      -2.99440000
H        0.70800000       2.01260000      -0.34050000
H       -0.95130000       1.57460000      -0.85090000
H       -0.56790000       1.75960000       0.88290000
H        1.52470000       0.06470000      -1.46500000
H        0.42260000      -2.49590000      -0.19260000
H        1.57600000      -2.47470000      -1.53360000
