19
Properties=species:S:1:pos:R:3 gdb_35967=T pbc="F F F"
C        0.01950000      -1.22040000       0.04650000
C        0.03300000      -0.02070000       0.04710000
C        0.01400000       1.44370000       0.00720000
O       -0.66930000       1.91280000       1.14420000
C       -1.44060000       3.10050000       0.99190000
C       -0.73540000       4.24980000       0.25020000
C        0.78920000       4.27920000       0.43670000
C        1.52240000       3.23920000      -0.41990000
O        1.34690000       1.88850000      -0.01720000
H        0.01470000      -2.28240000       0.05650000
H       -0.50780000       1.77500000      -0.90930000
H       -2.39830000       2.87040000       0.50120000
H       -1.66580000       3.39970000       2.02000000
H       -0.95490000       4.20000000      -0.82370000
H       -1.17870000       5.18900000       0.60060000
H        1.16570000       5.26490000       0.13680000
H        1.05700000       4.13730000       1.48950000
H        1.21350000       3.35670000      -1.47300000
H        2.60220000       3.40500000      -0.37140000
