21
Properties=species:S:1:pos:R:3 gdb_89486=T pbc="F F F"
C       -0.17060000       1.54060000       0.00250000
C        0.02640000       0.02690000      -0.00610000
C        0.88070000      -0.52180000      -1.19870000
C        2.00620000      -1.30360000      -0.49250000
O        2.67270000      -2.15600000      -1.38380000
C        2.89810000      -0.27850000       0.23930000
O        2.07230000       0.20520000       1.30600000
C        0.82450000      -0.51350000       1.20650000
C        1.25880000      -1.90090000       0.72810000
H        0.79220000       2.05420000       0.07270000
H       -0.67690000       1.87670000      -0.90810000
H       -0.77820000       1.85500000       0.85840000
H       -0.95620000      -0.45980000      -0.00760000
H        0.31170000      -1.19820000      -1.84210000
H        1.28270000       0.27750000      -1.82860000
H        3.37380000      -2.60990000      -0.90330000
H        3.80200000      -0.75470000       0.65100000
H        3.20990000       0.54800000      -0.41040000
H        0.31870000      -0.43200000       2.16960000
H        0.43110000      -2.55420000       0.44210000
H        1.91530000      -2.41500000       1.43640000
