14
Properties=species:S:1:pos:R:3 gdb_27604=T pbc="F F F"
O        0.10270000       1.35850000       0.12700000
C        0.06840000       0.00400000       0.03040000
C        0.07340000      -0.68370000      -1.17610000
C        0.03560000      -2.08470000      -1.15710000
C       -0.00560000      -2.72210000       0.09250000
N       -0.01040000      -2.06190000       1.24940000
C        0.02560000      -0.73280000       1.22050000
C        0.03880000      -2.83980000      -2.36310000
C        0.04140000      -3.48430000      -3.38020000
H        0.12980000       1.74420000      -0.75530000
H        0.10590000      -0.15410000      -2.12360000
H       -0.03550000      -3.80610000       0.14230000
H        0.02130000      -0.20420000       2.17020000
H        0.04340000      -4.05520000      -4.27570000
