17
Properties=species:S:1:pos:R:3 gdb_28297=T pbc="F F F"
N        0.01280000       1.41580000       0.14920000
C        0.00640000       0.01110000       0.04510000
C       -1.10200000      -0.81510000       0.02550000
N       -0.62630000      -2.11130000       0.00830000
C       -1.12740000      -3.41760000      -0.02430000
C       -0.11800000      -4.29840000      -0.04530000
C        1.20770000      -3.55060000      -0.02630000
C        0.75000000      -2.11800000       0.00770000
C        1.18050000      -0.81300000       0.03330000
H        0.77330000       1.83230000      -0.37360000
H       -0.85680000       1.82980000      -0.16250000
H       -2.15590000      -0.59120000       0.03120000
H       -2.19450000      -3.58610000      -0.02760000
H       -0.21370000      -5.37300000      -0.06830000
H        1.81560000      -3.82340000       0.84650000
H        1.81760000      -3.78070000      -0.90980000
H        2.20160000      -0.46310000       0.05220000
