13
Properties=species:S:1:pos:R:3 gdb_1782=T pbc="F F F"
O       -0.19390000       1.23450000      -0.20070000
C       -0.15020000      -0.13940000       0.05260000
C       -0.69520000      -0.69250000       1.32920000
C       -1.53400000      -0.78850000       0.05770000
O       -2.62560000       0.05250000      -0.10110000
C       -1.66510000      -2.11460000      -0.59620000
O       -0.85020000      -3.00060000      -0.48530000
H        0.19380000       1.70290000       0.54550000
H        0.64840000      -0.67880000      -0.45050000
H       -0.26200000      -1.61470000       1.70010000
H       -1.07100000       0.00610000       2.06930000
H       -2.26840000       0.91430000      -0.36150000
H       -2.58250000      -2.21870000      -1.21340000
