18
Properties=species:S:1:pos:R:3 gdb_90993=T pbc="F F F"
O       -0.08750000       1.37390000      -0.12350000
C        0.01990000      -0.04170000       0.00840000
C        0.45300000      -0.57140000       1.39110000
N       -0.75060000      -1.29750000       1.88470000
C       -1.36960000      -1.99780000       0.67030000
C       -2.75900000      -1.74940000       1.28920000
C       -1.95000000      -0.45380000       1.48410000
C       -1.39690000      -0.59340000       0.01050000
O       -2.16700000      -0.35010000      -1.11630000
H        0.78720000       1.73660000      -0.28990000
H        0.61140000      -0.45620000      -0.81940000
H        1.30220000      -1.25980000       1.34830000
H        0.69550000       0.24690000       2.07580000
H       -0.94570000      -2.92180000       0.27060000
H       -3.59600000      -1.69980000       0.59340000
H       -2.98350000      -2.31280000       2.19570000
H       -2.21240000       0.45400000       2.02950000
H       -1.99200000       0.56530000      -1.37010000
