19
Properties=species:S:1:pos:R:3 gdb_32823=T pbc="F F F"
N       -0.33850000       1.44280000      -0.09400000
C       -0.23150000       0.03850000      -0.03920000
C       -1.17480000      -0.97460000      -0.03180000
C       -2.66860000      -0.81320000      -0.00070000
C       -3.29470000      -0.34000000      -1.31440000
O       -2.95870000       1.03560000      -1.50990000
C       -0.45130000      -2.20740000      -0.03910000
C        0.89060000      -1.91570000      -0.03800000
N        1.01090000      -0.54630000      -0.04240000
H       -0.28800000       1.87120000       0.82630000
H       -1.22860000       1.68780000      -0.51820000
H       -3.12880000      -1.77270000       0.26120000
H       -2.97260000      -0.10070000       0.77830000
H       -2.92070000      -0.95420000      -2.14510000
H       -4.38900000      -0.45390000      -1.26920000
H       -3.12070000       1.26370000      -2.42930000
H       -0.88300000      -3.19780000      -0.02350000
H        1.75960000      -2.55310000      -0.02580000
H        1.86490000      -0.02200000      -0.12060000
