14
Properties=species:S:1:pos:R:3 gdb_84333=T pbc="F F F"
O        0.37520000       0.99540000       0.66740000
C       -0.04900000      -0.16140000      -0.00350000
C       -1.53400000      -0.15580000      -0.21450000
C       -2.07130000      -0.74680000      -1.28020000
C       -1.24280000      -1.36090000      -2.31600000
N       -1.71540000      -2.08450000      -3.23610000
O        0.12990000      -1.08020000      -2.28990000
C        0.69980000      -0.31220000      -1.32410000
O        1.77730000       0.18250000      -1.50190000
H        1.26260000       1.18850000       0.33160000
H        0.20920000      -1.06620000       0.58360000
H       -2.13440000       0.30570000       0.56170000
H       -3.13890000      -0.82500000      -1.44140000
H       -0.97680000      -2.40800000      -3.86300000
