15
Properties=species:S:1:pos:R:3 gdb_1746=T pbc="F F F"
O       -0.34250000       1.38010000      -0.21900000
C       -0.09530000       0.00670000      -0.04600000
C        1.10310000      -0.51150000      -0.83280000
C        2.41230000       0.05340000      -0.32790000
O        3.37790000      -0.60190000      -0.03170000
C       -0.44970000      -0.61160000       1.28280000
C       -1.32420000      -0.84360000       0.06470000
H        0.19520000       1.86870000       0.41280000
H        1.16170000      -1.60250000      -0.79980000
H        0.98040000      -0.19860000      -1.87930000
H        2.43210000       1.16540000      -0.24180000
H        0.15600000      -1.43220000       1.65220000
H       -0.83530000       0.05040000       2.05040000
H       -2.27050000      -0.31700000       0.02700000
H       -1.32380000      -1.82480000      -0.39670000
