22
Properties=species:S:1:pos:R:3 gdb_104063=T pbc="F F F"
C        0.06600000       1.27680000      -0.27860000
O       -0.06250000      -0.10370000      -0.01420000
C       -1.38680000      -0.58750000       0.08860000
C       -2.13670000      -0.00420000       1.28300000
C       -2.22090000      -0.62440000      -1.23310000
N       -2.42920000      -2.10190000      -1.10500000
C       -1.46420000      -2.88620000      -1.94340000
C       -0.38790000      -2.86450000      -0.82490000
C       -1.43330000      -2.13380000       0.04570000
H        1.12560000       1.46510000      -0.46810000
H       -0.50790000       1.58090000      -1.16670000
H       -0.25190000       1.89970000       0.56860000
H       -2.33230000       1.06590000       1.15980000
H       -3.10310000      -0.50370000       1.39840000
H       -1.55790000      -0.14950000       2.20100000
H       -3.15960000      -0.06140000      -1.22620000
H       -1.64310000      -0.33730000      -2.11960000
H       -1.86020000      -3.88180000      -2.16710000
H       -1.20240000      -2.40090000      -2.89010000
H       -0.08120000      -3.84340000      -0.45130000
H        0.50070000      -2.26810000      -1.03510000
H       -1.74330000      -2.63160000       0.96940000
