20
Properties=species:S:1:pos:R:3 gdb_99302=T pbc="F F F"
C       -0.29560000       1.29690000      -0.02790000
N       -0.16890000      -0.12300000      -0.26980000
C        0.75000000      -0.63690000      -1.13130000
O        1.55950000       0.00060000      -1.77010000
O        0.62870000      -1.98880000      -1.17390000
C        1.55790000      -2.65460000      -2.04840000
C        1.31700000      -4.13190000      -1.94330000
C        0.21340000      -4.77390000      -2.74440000
C        1.65330000      -5.01290000      -3.12090000
H        0.47530000       1.79840000      -0.61430000
H       -1.27700000       1.67470000      -0.33830000
H       -0.14820000       1.53840000       1.03100000
H       -0.78800000      -0.77330000       0.18340000
H        1.40620000      -2.30090000      -3.07440000
H        2.57800000      -2.38470000      -1.75670000
H        1.50490000      -4.54730000      -0.95750000
H       -0.34320000      -5.58590000      -2.29050000
H       -0.38010000      -4.13290000      -3.38770000
H        2.02920000      -4.53700000      -4.02070000
H        2.08730000      -5.98590000      -2.92130000
