21
Properties=species:S:1:pos:R:3 gdb_95458=T pbc="F F F"
C        0.01610000       1.59630000      -0.07240000
C        0.07000000       0.06730000       0.01910000
C        0.73130000      -0.59930000      -1.21530000
C        1.44020000      -1.86780000      -0.68420000
C        1.59880000      -1.56600000       0.78500000
C        0.87220000      -0.51800000       1.17520000
C        0.74560000      -0.02600000       2.59970000
C        1.43260000       1.23950000       2.86220000
C        2.01130000       2.26860000       3.08780000
H        1.02170000       2.02100000      -0.15140000
H       -0.55420000       1.90210000      -0.95640000
H       -0.46260000       2.04260000       0.80410000
H       -0.96750000      -0.29270000       0.12080000
H        0.01570000      -0.80830000      -2.01520000
H        1.48040000       0.08930000      -1.62290000
H        0.82800000      -2.77010000      -0.82760000
H        2.39280000      -2.06270000      -1.18980000
H        2.20380000      -2.17670000       1.44800000
H       -0.31770000       0.08900000       2.85600000
H        1.14180000      -0.78910000       3.28030000
H        2.51910000       3.18000000       3.28390000
