21
Properties=species:S:1:pos:R:3 gdb_93752=T pbc="F F F"
C        0.43610000       1.60040000      -0.13020000
C       -0.01030000       0.14010000       0.05870000
C        0.39390000      -0.78930000      -1.11720000
C        1.66460000      -1.53000000      -0.63980000
C        1.60680000      -1.42020000       0.86740000
C        2.53430000      -2.23280000       1.71340000
C        0.67820000      -0.51560000       1.24480000
C        0.34590000      -0.14610000       2.61890000
O       -0.48020000       0.69470000       2.91500000
H        1.51760000       1.66580000      -0.29620000
H       -0.06540000       2.04770000      -0.99490000
H        0.18900000       2.19300000       0.75380000
H       -1.09540000       0.14120000       0.20650000
H       -0.40100000      -1.51780000      -1.30380000
H        0.55160000      -0.23720000      -2.04750000
H        1.70740000      -2.57320000      -0.97540000
H        2.58850000      -1.06000000      -1.00810000
H        3.57640000      -2.02320000       1.44010000
H        2.42150000      -2.05020000       2.78300000
H        2.37900000      -3.30320000       1.52940000
H        0.89350000      -0.69430000       3.41560000
