18
Properties=species:S:1:pos:R:3 gdb_107528=T pbc="F F F"
O        0.04790000       1.42210000       0.14540000
C        0.03600000       0.01580000      -0.04380000
C       -1.35590000      -0.54140000      -0.05010000
C       -2.07150000      -1.03000000       1.18440000
C       -1.88340000      -1.97620000       0.03150000
C       -2.92660000      -1.69120000      -1.05330000
C       -2.39040000      -0.21300000      -1.15060000
C       -3.32670000       0.86860000      -0.87650000
N       -4.08260000       1.70830000      -0.62960000
H       -0.44120000       1.61520000       0.95270000
H        0.52230000      -0.14870000      -1.01240000
H        0.63770000      -0.50930000       0.71610000
H       -1.42620000      -1.20840000       2.03920000
H       -3.06080000      -0.65800000       1.43970000
H       -1.31850000      -2.89490000       0.12890000
H       -2.75900000      -2.23420000      -1.98460000
H       -3.97270000      -1.80290000      -0.75710000
H       -1.90590000      -0.03080000      -2.11290000
