17
Properties=species:S:1:pos:R:3 gdb_24150=T pbc="F F F"
C        0.70560000       0.45380000       0.67810000
C       -0.18260000       0.00700000      -0.47370000
C       -1.64400000      -0.15140000      -0.26900000
N       -1.12030000       0.95040000      -1.09270000
C        1.73590000       1.45530000       0.26110000
C        3.07450000       1.33120000       0.09270000
O        3.57180000       2.53720000      -0.32430000
C        2.48660000       3.33760000      -0.38590000
N        1.37610000       2.76850000      -0.05390000
H        0.08110000       0.90270000       1.46020000
H        1.19650000      -0.42010000       1.12120000
H        0.31460000      -0.63970000      -1.19500000
H       -2.19800000      -0.90950000      -0.81590000
H       -2.04100000       0.07080000       0.71910000
H       -1.11470000       1.82600000      -0.57440000
H        3.78680000       0.53360000       0.21310000
H        2.65170000       4.35730000      -0.69670000
