19
Properties=species:S:1:pos:R:3 gdb_116403=T pbc="F F F"
C        0.52540000       0.70340000       0.53980000
N       -0.12760000      -0.51050000       0.05330000
C       -1.57950000      -0.38480000      -0.11870000
C       -2.12640000      -1.60050000      -0.89250000
O       -2.47390000      -2.69790000      -0.05050000
C       -1.86520000      -2.65320000       1.19920000
O       -2.28650000      -1.49700000       1.93460000
C       -2.23710000      -0.32260000       1.25040000
N       -2.69670000       0.76220000       1.71420000
H        1.60390000       0.53090000       0.59150000
H        0.33960000       1.58780000      -0.09250000
H        0.16780000       0.93980000       1.54490000
H        0.27790000      -0.77690000      -0.83790000
H       -1.86250000       0.53830000      -0.64670000
H       -3.04080000      -1.32030000      -1.42290000
H       -1.38620000      -1.92310000      -1.64060000
H       -2.22190000      -3.51330000       1.76710000
H       -0.77180000      -2.64050000       1.12510000
H       -3.09460000       0.60420000       2.64340000
