21
Properties=species:S:1:pos:R:3 gdb_110905=T pbc="F F F"
C       -0.01260000       1.40710000      -0.05010000
O       -0.02010000      -0.01100000      -0.02340000
C        0.63270000      -0.60510000      -1.13260000
C        1.05360000      -2.04340000      -0.81740000
C        1.28790000      -2.60290000      -2.25200000
C       -0.25460000      -2.42870000      -2.36030000
C       -0.30140000      -2.80870000      -0.85320000
C       -0.37740000      -0.89210000      -2.32320000
O       -1.67230000      -0.40330000      -2.06270000
H        1.01580000       1.79650000      -0.05400000
H       -0.54480000       1.79990000      -0.92590000
H       -0.51610000       1.74730000       0.85820000
H        1.48280000       0.01840000      -1.43790000
H        1.77620000      -2.17270000      -0.01190000
H        1.92470000      -2.03000000      -2.93510000
H        1.59740000      -3.64990000      -2.24370000
H       -0.85310000      -2.94590000      -3.10970000
H       -0.17060000      -3.88090000      -0.69190000
H       -1.12600000      -2.43690000      -0.24150000
H       -0.04570000      -0.44510000      -3.26620000
H       -1.73870000      -0.32930000      -1.10110000
