16
Properties=species:S:1:pos:R:3 gdb_16416=T pbc="F F F"
O        0.05090000       1.39830000      -0.04680000
C        0.04960000      -0.02370000      -0.04250000
C        0.76090000      -0.55990000       1.18920000
C        0.04800000      -1.23310000       2.09370000
C       -1.41440000      -1.43950000       1.76240000
C       -1.52810000      -2.02870000       0.33280000
C       -1.39960000      -0.53920000      -0.04180000
O       -1.96020000      -0.17400000       1.25690000
H       -0.47960000       1.65080000       0.72110000
H        0.56650000      -0.32570000      -0.96110000
H        1.81210000      -0.32080000       1.31490000
H        0.46910000      -1.63480000       3.00950000
H       -2.01500000      -1.85070000       2.57520000
H       -0.75870000      -2.72930000       0.00580000
H       -2.52700000      -2.41110000       0.11380000
H       -1.97570000      -0.12950000      -0.87500000
