16
Properties=species:S:1:pos:R:3 gdb_32187=T pbc="F F F"
C        0.86220000       0.56790000       0.18150000
O       -0.51730000       0.87290000       0.02410000
C       -1.35280000      -0.16780000       0.19690000
C       -1.17190000      -1.48650000       0.49770000
C       -2.48660000      -2.08020000       0.54110000
C       -3.40580000      -1.11830000       0.26980000
N       -2.71720000       0.08090000       0.05250000
C       -3.30130000       1.30500000      -0.25430000
O       -4.48990000       1.46340000      -0.36720000
H        1.18000000      -0.18450000      -0.55000000
H        1.40310000       1.49910000       0.01310000
H        1.06540000       0.19730000       1.19330000
H       -0.23280000      -1.98590000       0.66900000
H       -2.70170000      -3.11620000       0.75390000
H       -4.47920000      -1.12530000       0.20050000
H       -2.55130000       2.10080000      -0.37900000
