16
Properties=species:S:1:pos:R:3 gdb_1618=T pbc="F F F"
C       -0.01070000       1.55230000      -0.00430000
C        0.02050000       0.02010000       0.03180000
C        0.76410000      -0.50260000       1.26720000
C       -1.42350000      -0.53460000      -0.03210000
O       -2.16530000      -0.05350000      -1.13910000
C       -1.43160000      -2.01340000      -0.01760000
N       -1.42470000      -3.16880000      -0.04850000
H        1.00620000       1.95300000      -0.04960000
H       -0.56870000       1.91860000      -0.86840000
H       -0.48700000       1.95250000       0.89850000
H        0.53910000      -0.34450000      -0.86680000
H        0.82070000      -1.59440000       1.27950000
H        1.78510000      -0.11100000       1.28820000
H        0.26670000      -0.17760000       2.18870000
H       -1.97180000      -0.18860000       0.85270000
H       -1.75990000      -0.39560000      -1.94470000
