15
Properties=species:S:1:pos:R:3 gdb_17506=T pbc="F F F"
C        0.02160000      -1.20390000      -0.02480000
C       -0.00060000      -0.00130000      -0.02980000
C       -0.02320000       1.42970000      -0.02220000
C       -1.10890000       2.22450000       0.74760000
C       -0.91190000       3.26070000      -0.33920000
C        0.53050000       3.28560000      -0.72360000
C        1.27530000       2.26560000       0.11230000
N       -0.38580000       2.25640000      -1.32950000
H        0.04000000      -2.26570000      -0.02450000
H       -2.08180000       1.73700000       0.65820000
H       -0.90840000       2.48050000       1.79280000
H       -1.60460000       4.03290000      -0.65230000
H        0.95040000       4.07700000      -1.33300000
H        1.61310000       2.52400000       1.12090000
H        2.09000000       1.80890000      -0.45340000
