22
Properties=species:S:1:pos:R:3 gdb_82050=T pbc="F F F"
C       -0.19460000       1.55420000      -0.38010000
C        0.06470000       0.07280000      -0.16940000
N        1.14730000      -0.56480000      -1.01560000
C        2.43920000      -0.02920000      -0.54440000
C        1.78050000      -1.06660000       0.27020000
C        0.68990000      -0.46000000       1.15040000
C        1.08130000       0.37630000       2.39910000
C        0.66950000      -0.82430000       3.29400000
C       -0.10080000      -1.41420000       2.08200000
H        0.67110000       2.17530000      -0.13220000
H       -0.46100000       1.74440000      -1.42510000
H       -1.02920000       1.88780000       0.24610000
H       -0.85410000      -0.48420000      -0.38340000
H        3.26750000      -0.33110000      -1.17830000
H        2.50780000       0.99080000      -0.17460000
H        2.16340000      -2.08010000       0.35470000
H        2.11550000       0.72640000       2.45820000
H        0.41580000       1.23490000       2.53490000
H        1.52890000      -1.44030000       3.57240000
H        0.09510000      -0.60660000       4.19710000
H       -1.16480000      -1.15600000       2.10640000
H       -0.01100000      -2.48710000       1.88930000
