21
Properties=species:S:1:pos:R:3 gdb_120878=T pbc="F F F"
C       -0.00960000       1.50550000       0.08830000
C        0.24240000       0.00990000       0.00430000
O        0.45000000      -0.48420000       1.31500000
C        0.66870000      -1.86060000       1.36880000
C        2.06820000      -2.45470000       0.93770000
C        2.17220000      -3.05300000       2.35260000
C        2.85370000      -4.30850000       2.78800000
O        2.16440000      -1.92910000       3.24190000
C        0.90330000      -2.41910000       2.77060000
H        0.84680000       2.01200000       0.54220000
H       -0.17210000       1.92200000      -0.91030000
H       -0.89220000       1.71220000       0.70020000
H       -0.61640000      -0.50390000      -0.46120000
H        1.12200000      -0.19790000      -0.62640000
H       -0.14240000      -2.40960000       0.86340000
H        1.99510000      -3.18780000       0.13080000
H        2.84280000      -1.71830000       0.71260000
H        3.94160000      -4.20950000       2.69950000
H        2.61620000      -4.53010000       3.83190000
H        2.54320000      -5.15540000       2.16760000
H        0.17060000      -2.70040000       3.51910000
