18
Properties=species:S:1:pos:R:3 gdb_124647=T pbc="F F F"
C       -0.04920000       1.49880000      -0.11350000
C        0.02660000      -0.02020000       0.00930000
C        0.67460000      -0.48490000       1.30550000
O       -1.30570000      -0.59200000       0.01490000
C       -1.92530000      -0.72580000      -1.16460000
C       -3.19110000      -1.23810000      -1.36500000
N       -3.33220000      -1.17210000      -2.71400000
N       -2.25290000      -0.66150000      -3.31200000
N       -1.38830000      -0.38630000      -2.36520000
H        0.95820000       1.92680000      -0.09190000
H       -0.52120000       1.78640000      -1.05510000
H       -0.62170000       1.92150000       0.71840000
H        0.56460000      -0.42980000      -0.85190000
H        0.11700000      -0.11110000       2.17010000
H        0.69900000      -1.57650000       1.35720000
H        1.70050000      -0.11050000       1.36900000
H       -3.94550000      -1.61950000      -0.70090000
H       -4.11930000      -1.45090000      -3.27750000
