23
Properties=species:S:1:pos:R:3 gdb_58586=T pbc="F F F"
C        0.18460000       1.55770000       0.10170000
C       -0.03160000       0.03610000       0.03430000
C       -1.50620000      -0.30130000       0.29960000
C        0.52980000      -0.54760000      -1.27680000
O        1.91610000      -0.19030000      -1.30670000
C        0.41220000      -2.08920000      -1.44780000
C        0.28460000      -2.27200000      -2.98170000
O        0.41470000      -0.96700000      -3.55560000
C       -0.11330000      -0.06490000      -2.58880000
H        1.22570000       1.81310000      -0.09940000
H       -0.44500000       2.08070000      -0.62810000
H       -0.08390000       1.93670000       1.09290000
H        0.56880000      -0.41800000       0.83410000
H       -2.16580000       0.12720000      -0.46290000
H       -1.69670000      -1.37700000       0.34260000
H       -1.81200000       0.12060000       1.26220000
H        2.22300000      -0.37370000      -2.20320000
H        1.30660000      -2.56030000      -1.03640000
H       -0.45700000      -2.50300000      -0.93410000
H        1.06130000      -2.90350000      -3.42020000
H       -0.69350000      -2.69870000      -3.24770000
H       -1.21260000      -0.12160000      -2.55690000
H        0.18990000       0.94620000      -2.86610000
