16
Properties=species:S:1:pos:R:3 gdb_23459=T pbc="F F F"
O       -0.03990000       1.32060000      -0.32600000
N        0.01770000      -0.07200000      -0.24870000
C       -1.10760000      -0.59110000       0.09930000
C       -2.35060000       0.12120000       0.37210000
C       -3.40070000      -0.48120000       0.94370000
C       -3.42040000      -1.91530000       1.39100000
C       -2.25050000      -2.73030000       0.88420000
O       -2.08920000      -2.78040000      -0.53030000
C       -1.10160000      -2.06970000       0.23930000
H        0.84950000       1.54530000      -0.61880000
H       -2.38860000       1.16880000       0.10240000
H       -4.30700000       0.09090000       1.12480000
H       -3.43330000      -1.95570000       2.49030000
H       -4.35710000      -2.39330000       1.07190000
H       -2.08240000      -3.68180000       1.38950000
H       -0.11690000      -2.53010000       0.25700000
