16
Properties=species:S:1:pos:R:3 gdb_128043=T pbc="F F F"
C       -0.03290000       1.38820000      -0.00590000
N        0.26040000      -0.02520000       0.11860000
C        0.56050000      -0.64110000      -0.93250000
O        0.80500000      -1.98320000      -0.86410000
C        1.28960000      -2.61060000      -1.96620000
N        1.85870000      -1.97190000      -2.97860000
N        2.19650000      -2.96970000      -3.82910000
C        1.86690000      -4.19670000      -3.36610000
C        1.26400000      -4.01040000      -2.14080000
H        0.64600000       1.95860000       0.63790000
H        0.05260000       1.77720000      -1.03300000
H       -1.04970000       1.58250000       0.35360000
H        0.64270000      -0.22410000      -1.94060000
H        2.66070000      -2.73390000      -4.68850000
H        2.07950000      -5.09150000      -3.92930000
H        0.86260000      -4.75230000      -1.47240000
