17
Properties=species:S:1:pos:R:3 gdb_86095=T pbc="F F F"
C        0.04180000       1.51920000      -0.17000000
C       -0.02010000       0.00620000       0.03390000
N        0.62410000      -0.73600000      -1.06720000
C        1.87000000      -1.13990000      -0.58800000
N        2.81060000      -1.55680000      -1.50050000
N        2.06550000      -1.08530000       0.68010000
C        0.82650000      -0.54200000       1.24740000
C        1.08620000       0.46480000       2.28490000
N        1.26200000       1.25700000       3.10740000
H        1.07790000       1.86520000      -0.23860000
H       -0.48160000       1.79920000      -1.09060000
H       -0.43540000       2.04420000       0.66140000
H       -1.06220000      -0.30950000       0.13580000
H        0.63940000      -0.25600000      -1.95890000
H        2.44520000      -2.06480000      -2.29310000
H        3.59830000      -2.01560000      -1.06540000
H        0.26780000      -1.35340000       1.73550000
