15
Properties=species:S:1:pos:R:3 gdb_17149=T pbc="F F F"
N        0.03390000      -1.09840000      -0.02990000
C       -0.00530000       0.05750000       0.00900000
C       -0.05700000       1.49360000       0.06200000
C       -0.75520000       2.40230000       1.09740000
C       -0.10520000       3.38130000       0.10180000
C        1.16640000       2.48070000      -0.08860000
C        1.05130000       2.50780000      -1.62440000
C       -0.40830000       2.46250000      -1.13460000
H       -1.84790000       2.36240000       1.11450000
H       -0.34680000       2.37970000       2.11150000
H       -0.11720000       4.47020000       0.10090000
H        2.05230000       2.46900000       0.54690000
H        1.36860000       3.43070000      -2.11800000
H        1.41960000       1.63070000      -2.16360000
H       -1.33720000       2.43000000      -1.70440000
