13
Properties=species:S:1:pos:R:3 gdb_3627=T pbc="F F F"
O       -0.05530000       1.49330000       0.12910000
C        1.37880000       1.48400000      -0.04320000
C        1.99100000       0.61090000       1.08920000
C        0.93910000      -0.49830000       1.09450000
C        2.15360000      -0.60090000       0.20010000
C        1.33840000       0.16710000      -0.88550000
C        0.02950000       0.06100000      -0.03650000
H        1.80850000       2.44490000      -0.32070000
H        2.54390000       0.90470000       1.97040000
H        0.67930000      -1.06170000       1.97970000
H        2.93590000      -1.34290000       0.14640000
H        1.39810000       0.10530000      -1.96880000
H       -0.90850000      -0.42050000      -0.30720000
