14
Properties=species:S:1:pos:R:3 gdb_31897=T pbc="F F F"
C        0.03290000       1.48610000      -0.19000000
N        0.20550000       0.05340000       0.01540000
C        0.63250000      -0.75840000      -0.98900000
C        0.62030000      -2.11920000      -1.19860000
N        1.26540000      -2.38860000      -2.37950000
C        1.63590000      -1.23440000      -2.84190000
O        1.27270000      -0.17790000      -2.02820000
C        2.33110000      -0.93050000      -4.03060000
N        2.90150000      -0.67060000      -5.00520000
H        0.97010000       1.92230000      -0.54100000
H       -0.75370000       1.72360000      -0.91880000
H       -0.22130000       1.94270000       0.76800000
H       -0.44260000      -0.38530000       0.65010000
H        0.19700000      -2.89470000      -0.58210000
