15
Properties=species:S:1:pos:R:3 gdb_56113=T pbc="F F F"
N       -0.03050000       1.27740000      -0.11380000
C        0.05350000      -0.05990000       0.15610000
O        1.08270000      -0.61370000       0.46720000
C       -1.30440000      -0.76380000       0.09150000
O       -1.06780000      -2.15840000      -0.01300000
C       -2.16230000      -2.94000000       0.02480000
N       -3.33640000      -2.45850000       0.13350000
C       -1.82380000      -4.33270000      -0.07390000
C       -1.59450000      -5.50970000      -0.15430000
H        0.82190000       1.81320000      -0.10340000
H       -0.85540000       1.69820000      -0.50490000
H       -1.87990000      -0.54200000       0.99820000
H       -1.90420000      -0.41600000      -0.75800000
H       -4.02710000      -3.20520000       0.14960000
H       -1.38300000      -6.54870000      -0.22420000
