18
Properties=species:S:1:pos:R:3 gdb_36695=T pbc="F F F"
N       -0.14650000      -1.12060000      -0.05400000
C       -0.06020000       0.02630000       0.05890000
C        0.07110000       1.47450000       0.19100000
C        1.45080000       1.98840000      -0.27000000
C        1.54890000       3.49430000      -0.10050000
O        1.30500000       3.93840000       1.26910000
C        2.50630000       4.71810000       1.23920000
C        3.70640000       3.84040000       1.11150000
C        2.90350000       4.20330000      -0.12450000
H       -0.72870000       1.95090000      -0.38830000
H       -0.08560000       1.75500000       1.23770000
H        2.23370000       1.49000000       0.30820000
H        1.61180000       1.73590000      -1.32400000
H        0.83110000       3.99820000      -0.76300000
H        2.47660000       5.71030000       1.67270000
H        4.66450000       4.34690000       1.17490000
H        3.68890000       2.83930000       1.53180000
H        3.32890000       4.71510000      -0.97630000
