19
Properties=species:S:1:pos:R:3 gdb_83312=T pbc="F F F"
C       -0.28200000       1.61760000       0.14830000
C        0.01970000       0.14610000      -0.02380000
C        1.38880000      -0.34650000      -0.41420000
O        2.44130000       0.56950000      -0.26730000
C        2.91800000       0.54910000       1.08190000
C        1.79220000      -0.04960000       1.95330000
C        1.12270000       0.93820000       2.89490000
O        1.53040000       2.04210000       3.14870000
C        0.84530000      -0.70600000       0.94230000
H        0.60410000       2.18480000       0.43800000
H       -0.64040000       2.03590000      -0.79820000
H       -1.06030000       1.78640000       0.90010000
H       -0.79480000      -0.42240000      -0.46810000
H        1.53370000      -1.06900000      -1.21220000
H        3.82890000      -0.06140000       1.14460000
H        3.15600000       1.57250000       1.38260000
H        2.18500000      -0.83840000       2.61030000
H        0.19760000       0.54440000       3.37430000
H        0.49320000      -1.70790000       1.15610000
