12
Properties=species:S:1:pos:R:3 gdb_9025=T pbc="F F F"
N       -0.04400000       1.49160000       0.07950000
C       -0.02050000       0.02520000      -0.02540000
C       -1.39100000      -0.49580000       0.15610000
N       -2.46070000      -0.90760000       0.29320000
C        0.56560000      -0.50440000      -1.26440000
C        1.08760000      -0.88320000      -2.28800000
C        1.66650000      -1.31250000      -3.44150000
C        2.18260000      -1.69240000      -4.46440000
H        0.91030000       1.83380000       0.00880000
H       -0.55000000       1.87610000      -0.71400000
H        0.56910000      -0.34690000       0.82410000
H        2.63230000      -2.03020000      -5.36540000
