16
Properties=species:S:1:pos:R:3 gdb_32388=T pbc="F F F"
C       -0.02920000       1.41060000      -0.00470000
O       -0.01030000      -0.00270000      -0.02270000
C        0.61750000      -0.59090000       1.02610000
C        1.24280000      -0.00100000       2.11280000
N        1.72550000      -1.01870000       2.89880000
C        1.42230000      -2.23880000       2.33870000
C        0.72720000      -1.99500000       1.16290000
C        1.80440000      -3.45040000       2.94670000
C        2.13860000      -4.47890000       3.47960000
H        0.98910000       1.82390000      -0.02050000
H       -0.56220000       1.72970000      -0.90160000
H       -0.55170000       1.79180000       0.88380000
H        1.38150000       1.03050000       2.38580000
H        2.22880000      -0.90350000       3.76050000
H        0.34400000      -2.73830000       0.48330000
H        2.42790000      -5.39090000       3.94000000
