19
Properties=species:S:1:pos:R:3 gdb_87638=T pbc="F F F"
C       -0.12700000       1.41630000      -0.09910000
C        0.05710000      -0.08000000       0.01370000
C        1.42780000      -0.70480000      -0.14640000
C        0.75190000      -0.70950000       1.18930000
C        1.13640000      -0.01730000       2.50930000
C        0.17600000      -1.01720000       3.18430000
O       -0.53000000      -0.97260000       4.15080000
C        0.17990000      -1.93740000       1.94750000
O       -1.00490000      -2.55880000       1.54860000
H        0.74120000       1.95660000       0.29250000
H       -0.25550000       1.71520000      -1.14490000
H       -1.00910000       1.75810000       0.45420000
H       -0.76590000      -0.67430000      -0.37730000
H        1.51230000      -1.64640000      -0.68070000
H        2.27080000      -0.03350000      -0.28450000
H        2.18060000      -0.16940000       2.80330000
H        0.87870000       1.03620000       2.64140000
H        0.94790000      -2.71700000       2.04140000
H       -1.74280000      -2.04320000       1.89410000
