21
Properties=species:S:1:pos:R:3 gdb_107342=T pbc="F F F"
C        0.17160000       1.26560000      -0.26520000
O       -0.23490000       0.01700000       0.26010000
C        0.62160000      -0.51230000       1.23600000
C        1.88500000      -1.15830000       0.73750000
C        0.70530000      -2.01460000       1.21380000
C        0.79680000      -2.72150000       2.51410000
C        1.06530000      -2.08640000       3.65660000
C        1.27570000      -0.59400000       3.71620000
C        0.52830000       0.15750000       2.59700000
H        1.19190000       1.22310000      -0.67280000
H       -0.52300000       1.50970000      -1.07270000
H        0.13040000       2.06860000       0.48390000
H        2.06510000      -1.12290000      -0.33120000
H        2.77610000      -1.14990000       1.35540000
H        0.14080000      -2.50090000       0.42590000
H        0.65710000      -3.79900000       2.50490000
H        1.15890000      -2.64620000       4.58280000
H        0.94520000      -0.20390000       4.68550000
H        2.35100000      -0.36970000       3.66690000
H        0.88990000       1.19070000       2.54810000
H       -0.53900000       0.20510000       2.84600000
