17
Properties=species:S:1:pos:R:3 gdb_123800=T pbc="F F F"
C       -0.35870000       1.03780000      -0.33840000
C        1.02040000       1.16140000       0.25740000
C        0.41110000      -0.19890000       0.06140000
N       -0.00120000      -0.90330000       1.23930000
C       -0.98260000      -1.86900000       1.15920000
N       -1.03700000      -2.84430000       2.04570000
O       -2.17500000      -3.58910000       1.70610000
C       -2.74190000      -3.04100000       0.62770000
C       -2.05330000      -1.95010000       0.21340000
H       -1.19810000       1.31550000       0.28800000
H       -0.48720000       1.23750000      -1.39620000
H        1.84400000       1.44630000      -0.38670000
H        1.09060000       1.52530000       1.27600000
H        0.81320000      -0.80490000      -0.75140000
H        0.74540000      -1.15870000       1.87190000
H       -3.63190000      -3.53140000       0.26290000
H       -2.26260000      -1.29990000      -0.61770000
