21
Properties=species:S:1:pos:R:3 gdb_63989=T pbc="F F F"
C        0.30810000       1.54390000      -0.09610000
C        0.09770000       0.03890000      -0.01770000
O       -1.28480000      -0.27930000      -0.15260000
C        1.00070000      -0.85900000      -0.92460000
C        1.37460000      -1.72730000       0.31240000
O        2.73650000      -1.72110000       0.69700000
C        2.99910000      -0.48540000       1.35140000
C        1.70870000      -0.13530000       2.11450000
C        0.60030000      -0.73970000       1.23990000
H        1.35840000       1.82100000       0.03450000
H       -0.00580000       1.91710000      -1.07920000
H       -0.28620000       2.05690000       0.66650000
H       -1.57910000       0.04870000      -1.00980000
H        0.45420000      -1.37860000      -1.71530000
H        1.86480000      -0.35040000      -1.36090000
H        1.04610000      -2.76670000       0.27200000
H        3.86940000      -0.62770000       1.99750000
H        3.24810000       0.29950000       0.61930000
H        1.70780000      -0.63210000       3.08900000
H        1.60100000       0.93830000       2.28900000
H       -0.23040000      -1.14060000       1.82020000
