21
Properties=species:S:1:pos:R:3 gdb_83292=T pbc="F F F"
C       -0.30590000       1.54930000       0.08270000
C        0.02840000       0.06450000      -0.03540000
C        0.78300000      -0.45940000      -1.28530000
C        2.15790000       0.23890000      -1.41190000
C        2.97300000      -0.35650000      -0.21990000
C        1.97130000      -1.35430000       0.43890000
C        1.20190000      -1.86730000      -0.79780000
C        0.92500000      -0.46310000       1.10340000
O        0.83080000      -0.18180000       2.27130000
H        0.58440000       2.17940000      -0.00440000
H       -1.01670000       1.85960000      -0.68930000
H       -0.74990000       1.74640000       1.06230000
H       -0.91080000      -0.50460000       0.03950000
H        0.18490000      -0.43120000      -2.19820000
H        2.62320000      -0.01190000      -2.36940000
H        2.08600000       1.32800000      -1.36990000
H        3.85410000      -0.90160000      -0.56990000
H        3.31850000       0.40250000       0.48640000
H        2.42780000      -2.07710000       1.11370000
H        0.35260000      -2.51090000      -0.54850000
H        1.84730000      -2.39430000      -1.50690000
