21
Properties=species:S:1:pos:R:3 gdb_100926=T pbc="F F F"
C        0.27070000       1.12270000      -0.33810000
O        0.14250000      -0.17340000       0.22140000
C       -1.16350000      -0.73410000       0.10700000
C       -1.29090000      -1.19980000      -1.34560000
O       -1.93110000      -0.62260000      -2.18520000
C       -1.27340000      -1.85980000       1.14320000
C       -1.07430000      -1.32200000       2.56560000
C       -2.61250000      -2.59580000       1.01910000
O       -2.80590000      -3.20000000      -0.25300000
H        1.31100000       1.42380000      -0.19570000
H        0.03450000       1.14010000      -1.40980000
H       -0.38590000       1.84250000       0.17210000
H       -1.93280000       0.03280000       0.28780000
H       -0.62630000      -2.05600000      -1.59840000
H       -0.46740000      -2.57780000       0.92730000
H       -0.13450000      -0.77260000       2.63720000
H       -1.88820000      -0.64270000       2.84540000
H       -1.05590000      -2.13860000       3.29410000
H       -2.70100000      -3.33580000       1.82800000
H       -3.44150000      -1.88860000       1.13800000
H       -2.19200000      -3.93750000      -0.32990000
