13
Properties=species:S:1:pos:R:3 gdb_35597=T pbc="F F F"
N        0.32690000      -1.13310000       0.07960000
C        0.15590000       0.00940000       0.05070000
C       -0.05270000       1.46400000       0.00230000
C       -0.62780000       2.04880000       1.34320000
N        0.50500000       2.67560000       2.03020000
C        1.46190000       2.70190000       1.18580000
N        1.21490000       2.20320000      -0.09340000
C        2.75310000       3.26640000       1.46590000
N        3.80670000       3.70170000       1.65280000
H       -0.70020000       1.69010000      -0.84850000
H       -1.38330000       2.81240000       1.12800000
H       -1.08800000       1.28360000       1.97070000
H        1.97870000       1.78880000      -0.61020000
