21
Properties=species:S:1:pos:R:3 gdb_41941=T pbc="F F F"
C        0.00380000       1.56560000       0.10570000
O        1.37470000       1.93360000      -0.11430000
C        2.21940000       0.78020000      -0.00310000
C        1.35240000      -0.26820000       0.69400000
C        1.66170000      -1.73380000       0.60450000
C        0.67280000      -2.62780000       0.53420000
C       -0.80010000      -2.28190000       0.50790000
C       -1.10280000      -0.77980000       0.73070000
C       -0.00990000       0.04170000       0.06050000
H       -0.33210000       1.94500000       1.08370000
H       -0.61220000       2.03340000      -0.67030000
H        2.53500000       0.43970000      -1.00170000
H        3.11460000       1.06130000       0.56200000
H        1.30410000       0.02090000       1.75680000
H        2.69830000      -2.06060000       0.63500000
H        0.91110000      -3.68820000       0.48260000
H       -1.21260000      -2.60170000      -0.46060000
H       -1.33010000      -2.88650000       1.25510000
H       -2.09790000      -0.53950000       0.34050000
H       -1.12020000      -0.55570000       1.80490000
H        0.04900000      -0.26170000      -0.99520000
