16
Properties=species:S:1:pos:R:3 gdb_17686=T pbc="F F F"
O        0.10170000       1.35320000       0.01170000
C        0.10510000      -0.03530000       0.05280000
C       -0.35710000      -0.76270000       1.30100000
C       -1.23390000      -0.74150000       0.07530000
O       -2.34500000       0.11590000       0.14380000
C       -1.48530000      -1.97510000      -0.72820000
C       -2.79870000      -2.62930000      -0.74620000
O       -2.38350000      -1.78160000      -1.83230000
H       -0.82970000       1.61560000       0.05030000
H        0.92160000      -0.46320000      -0.52250000
H        0.11990000      -1.69650000       1.58090000
H       -0.68680000      -0.14480000       2.12940000
H       -2.73400000       0.09280000      -0.74400000
H       -0.60230000      -2.57040000      -0.96010000
H       -2.87140000      -3.68670000      -0.99210000
H       -3.59950000      -2.22820000      -0.12990000
