12
Properties=species:S:1:pos:R:3 gdb_2884=T pbc="F F F"
N       -0.21680000      -1.15470000      -0.19570000
C       -0.07940000      -0.01230000      -0.09340000
C        0.05380000       1.43840000       0.06040000
C       -0.58900000       1.96690000       1.38630000
N        0.40420000       2.97530000       1.77640000
C        1.55470000       2.68720000       1.06890000
N        1.47300000       1.86490000       0.09410000
H       -0.42650000       1.90860000      -0.80760000
H       -1.57430000       2.40790000       1.22360000
H       -0.67680000       1.16910000       2.13310000
H        0.48470000       3.22350000       2.75170000
H        2.47650000       3.19930000       1.32900000
