18
Properties=species:S:1:pos:R:3 gdb_61226=T pbc="F F F"
C        0.11120000       1.53180000      -0.19370000
C        0.00710000       0.02870000      -0.07280000
C        1.15810000      -0.81400000      -0.42280000
O        0.81780000      -0.56940000       0.95550000
C       -1.38840000      -0.60560000      -0.14360000
O       -1.32350000      -1.98800000       0.10640000
C       -2.36380000       0.08070000       0.84900000
C       -3.69050000      -0.52820000       0.82390000
N       -4.74920000      -0.98940000       0.79740000
H        1.15880000       1.83950000      -0.21840000
H       -0.37220000       1.87960000      -1.11320000
H       -0.36400000       2.03710000       0.65240000
H        0.99650000      -1.83320000      -0.76140000
H        2.07860000      -0.33860000      -0.75580000
H       -1.78400000      -0.48840000      -1.15910000
H       -0.73560000      -2.09270000       0.86900000
H       -1.95510000       0.00820000       1.86400000
H       -2.47020000       1.14530000       0.61740000
