17
Properties=species:S:1:pos:R:3 gdb_85025=T pbc="F F F"
C       -0.07560000       1.53570000       0.00120000
C        0.03920000       0.01950000      -0.01880000
O        0.85940000      -0.43120000      -1.11380000
C        1.89800000      -1.17850000      -0.64490000
N        2.80630000      -1.73640000      -1.31910000
N        1.81410000      -1.24000000       0.74290000
C        2.77160000      -1.94840000       1.56940000
C        0.72810000      -0.54610000       1.22170000
O        0.39840000      -0.40760000       2.37520000
H        0.91390000       1.99680000       0.06730000
H       -0.57080000       1.89410000      -0.90430000
H       -0.66150000       1.83760000       0.87320000
H       -0.95000000      -0.44190000      -0.12190000
H        2.67350000      -1.56160000      -2.31310000
H        2.78480000      -3.00940000       1.30880000
H        3.77470000      -1.54240000       1.41940000
H        2.46080000      -1.81700000       2.60660000
