15
Properties=species:S:1:pos:R:3 gdb_124317=T pbc="F F F"
C        0.12740000       1.47920000       0.07020000
C       -0.29860000       0.02960000       0.01150000
O       -1.07170000      -0.46990000       0.78940000
C        0.30820000      -0.77640000      -1.14740000
N        0.16460000      -2.20430000      -0.99580000
C       -0.90730000      -2.98010000      -0.74750000
N       -0.52330000      -4.23650000      -0.69920000
N        0.81950000      -4.21790000      -0.91820000
N        1.24680000      -3.01610000      -1.09610000
H        1.17070000       1.53740000       0.40260000
H        0.08040000       1.94690000      -0.91910000
H       -0.50420000       2.02200000       0.77360000
H       -0.17090000      -0.43650000      -2.07550000
H        1.37720000      -0.57380000      -1.24660000
H       -1.90390000      -2.60410000      -0.59750000
