14
Properties=species:S:1:pos:R:3 gdb_19673=T pbc="F F F"
N       -0.11150000      -1.09610000      -0.14740000
C       -0.03720000       0.05510000      -0.06860000
C        0.05360000       1.50380000       0.02710000
C       -0.04580000       1.99760000       1.48250000
C        1.42360000       1.96330000       1.66110000
C        1.52710000       2.03140000       0.08860000
C        1.30040000       3.53960000       0.26970000
N        0.72180000       3.27690000       1.63000000
H       -0.60030000       1.96480000      -0.72120000
H       -0.84200000       1.81260000       2.18950000
H        2.06980000       1.62340000       2.45780000
H        2.28550000       1.60310000      -0.56170000
H        2.22810000       4.10200000       0.39560000
H        0.64000000       4.05930000      -0.43400000
