19
Properties=species:S:1:pos:R:3 gdb_71717=T pbc="F F F"
C        0.03530000       1.45700000      -0.07120000
C       -0.03770000      -0.03890000      -0.02820000
O        0.55640000      -0.72330000      -1.16250000
C       -0.23450000      -1.86010000      -0.76030000
C        0.19240000      -2.25590000       0.67920000
C        0.34770000      -0.84890000       1.24580000
C       -0.98430000      -1.55890000       1.32380000
C       -1.32010000      -0.95790000      -0.08100000
C       -2.64940000      -0.58390000      -0.66240000
H        1.07880000       1.78860000      -0.03230000
H       -0.41230000       1.84620000      -0.99000000
H       -0.49010000       1.88890000       0.78640000
H       -0.38600000      -2.60550000      -1.54030000
H        0.76970000      -3.10210000       1.02540000
H        1.04520000      -0.59820000       2.03400000
H       -1.59460000      -1.83230000       2.17260000
H       -3.14530000       0.18890000      -0.06380000
H       -2.52860000      -0.19800000      -1.68060000
H       -3.32090000      -1.44890000      -0.70800000
