13
Properties=species:S:1:pos:R:3 gdb_50052=T pbc="F F F"
O       -0.20760000       0.32760000       0.84620000
C        0.32860000       0.74520000      -0.14670000
C        1.38730000       1.80370000      -0.11300000
O        2.31570000       1.78660000      -1.19560000
C        1.40390000       2.88360000      -1.14510000
C        0.41780000       2.99530000      -2.18090000
C       -0.40230000       3.14800000      -3.05820000
C       -1.32730000       3.30810000      -4.04100000
C       -2.14870000       3.45120000      -4.91410000
H        0.08830000       0.37680000      -1.16550000
H        1.79560000       2.02860000       0.87120000
H        1.85750000       3.82510000      -0.83510000
H       -2.87200000       3.57530000      -5.68220000
