21
Properties=species:S:1:pos:R:3 gdb_32622=T pbc="F F F"
C       -0.09940000       1.58010000       0.02710000
C        0.02400000       0.05410000      -0.01730000
N        0.69580000      -0.43300000      -1.20960000
C        0.10450000      -0.65060000      -2.42840000
C        1.06770000      -1.08070000      -3.30980000
C        2.30930000      -1.11720000      -2.61230000
C        3.64460000      -1.52540000      -3.15680000
C        2.04770000      -0.70860000      -1.31690000
N        2.87100000      -0.58420000      -0.17190000
H        0.88870000       2.04980000       0.02600000
H       -0.65430000       1.95530000      -0.83790000
H       -0.62530000       1.89270000       0.93510000
H        0.59730000      -0.30210000       0.84150000
H       -0.96860000      -0.40660000       0.02270000
H       -0.95260000      -0.48190000      -2.56200000
H        0.90530000      -1.34370000      -4.34470000
H        3.88610000      -0.98910000      -4.08180000
H        4.44410000      -1.31290000      -2.43910000
H        3.69120000      -2.59690000      -3.38940000
H        3.41540000       0.27320000      -0.17130000
H        3.52150000      -1.35740000      -0.09920000
