16
Properties=species:S:1:pos:R:3 gdb_24485=T pbc="F F F"
C       -0.05280000       1.49040000       0.01060000
C        1.39870000       1.90260000      -0.00100000
C        2.20600000       0.82610000      -0.01460000
C        1.39880000      -0.39280000      -0.01370000
C        1.70880000      -1.74660000      -0.02410000
C        0.64100000      -2.64520000      -0.01900000
C       -0.66580000      -2.16250000      -0.00390000
N       -0.98450000      -0.85690000       0.00640000
C        0.03790000      -0.01710000       0.00130000
H       -0.58870000       1.85990000       0.89450000
H       -0.60540000       1.86960000      -0.85880000
H        1.72040000       2.93620000       0.00170000
H        3.28910000       0.84020000      -0.02480000
H        2.73590000      -2.09770000      -0.03590000
H        0.81740000      -3.71520000      -0.02660000
H       -1.50240000      -2.85640000       0.00020000
