15
Properties=species:S:1:pos:R:3 gdb_130025=T pbc="F F F"
N        0.01300000       1.32910000       0.10860000
C       -0.01120000      -0.03000000       0.03350000
N       -1.20830000      -0.63720000       0.12880000
C       -1.16020000      -1.95870000       0.11050000
C        0.05540000      -2.64190000      -0.00740000
C        0.16020000      -4.14520000      -0.00340000
O       -1.11960000      -4.68740000      -0.28490000
N        1.19580000      -1.96370000      -0.12960000
N        1.18050000      -0.64410000      -0.10990000
H        0.86270000       1.78460000      -0.18010000
H       -0.85780000       1.81140000      -0.03570000
H       -2.09700000      -2.50230000       0.17720000
H        0.91310000      -4.44560000      -0.74620000
H        0.52710000      -4.48070000       0.98010000
H       -1.07530000      -5.63990000      -0.16590000
