17
Properties=species:S:1:pos:R:3 gdb_28703=T pbc="F F F"
C       -0.13780000       1.50720000       0.35740000
C       -0.12210000       0.04550000       0.08720000
C       -0.96750000      -0.79140000      -0.57650000
C       -0.38840000      -2.09860000      -0.50440000
C        0.76390000      -1.96540000       0.20030000
N        1.73000000      -2.88200000       0.60440000
C        2.98180000      -2.97960000       0.02810000
N        3.32380000      -2.31440000      -0.99850000
O        0.93640000      -0.65800000       0.57470000
H        0.73760000       2.00310000      -0.07680000
H       -1.03510000       1.95390000      -0.07650000
H       -0.13400000       1.71920000       1.43270000
H       -1.88700000      -0.50870000      -1.06520000
H       -0.76610000      -3.01530000      -0.92830000
H        1.60310000      -3.34910000       1.48830000
H        3.60790000      -3.70610000       0.56220000
H        4.27290000      -2.55650000      -1.27300000
