18
Properties=species:S:1:pos:R:3 gdb_45548=T pbc="F F F"
N        0.24180000       0.86180000      -0.80760000
C        0.08610000      -0.17080000      -0.09910000
C       -1.22030000      -0.90490000       0.11080000
C       -0.82130000      -2.24270000       0.74880000
C       -0.68370000      -3.44790000      -0.21590000
C        0.83030000      -3.54730000      -0.45290000
O        1.41360000      -3.07870000       0.76660000
C        0.64500000      -2.01530000       1.22070000
O        1.07600000      -0.78060000       0.61830000
H        1.21290000       1.17660000      -0.77270000
H       -1.84800000      -0.31280000       0.78430000
H       -1.76410000      -1.00140000      -0.83040000
H       -1.46690000      -2.49360000       1.59060000
H       -1.04670000      -4.35890000       0.26670000
H       -1.24600000      -3.31110000      -1.14240000
H        1.19100000      -4.56400000      -0.61970000
H        1.15210000      -2.91950000      -1.29470000
H        0.80710000      -1.92530000       2.29670000
