16
Properties=species:S:1:pos:R:3 gdb_53027=T pbc="F F F"
C        0.00590000       1.43130000       0.02880000
C        0.03290000      -0.02230000       0.02800000
C        0.05250000      -1.22750000       0.03050000
C        0.07890000      -2.65310000       0.01680000
N        0.86160000      -3.50980000       0.98170000
C        0.21560000      -4.52230000       0.09020000
C       -1.09930000      -3.69860000      -0.00720000
O       -1.18320000      -3.76470000      -1.45520000
C        0.24250000      -3.65010000      -1.20520000
H        0.78710000       1.83840000       0.68000000
H        0.16870000       1.83170000      -0.97780000
H       -0.95740000       1.81000000       0.38750000
H        1.86110000      -3.43740000       0.77440000
H        0.33960000      -5.59830000       0.20030000
H       -2.01070000      -3.73200000       0.58680000
H        0.93110000      -3.62300000      -2.05120000
