21
Properties=species:S:1:pos:R:3 gdb_72489=T pbc="F F F"
C       -0.00380000       1.50160000       0.05840000
C       -0.00360000      -0.01170000      -0.05680000
C        0.79250000      -0.56410000      -1.27170000
C        1.42760000      -1.86440000      -0.71810000
C        0.89980000      -1.91260000       0.73340000
O        0.71660000      -0.55530000       1.07170000
O       -0.30750000      -2.63330000       0.86430000
C       -1.33530000      -2.15020000       0.00520000
C       -1.42020000      -0.61650000       0.01740000
H        1.02240000       1.87730000       0.10800000
H       -0.49830000       1.95210000      -0.80820000
H       -0.53120000       1.82300000       0.96120000
H        0.14810000      -0.74120000      -2.13710000
H        1.55830000       0.15500000      -1.57230000
H        1.15660000      -2.76350000      -1.27620000
H        2.51780000      -1.79780000      -0.70320000
H        1.58700000      -2.35760000       1.45460000
H       -1.17020000      -2.51100000      -1.02220000
H       -2.26570000      -2.60120000       0.36060000
H       -1.88020000      -0.27750000       0.95140000
H       -2.04550000      -0.27210000      -0.81440000
