13
Properties=species:S:1:pos:R:3 gdb_129097=T pbc="F F F"
N       -0.10980000       1.28740000       0.53120000
C       -0.03140000       0.10190000       0.06980000
C        1.25060000      -0.50010000      -0.34460000
N        1.60760000      -1.45650000      -1.11300000
O        0.76550000      -2.25730000      -1.86870000
N       -0.61910000      -2.31340000      -1.90140000
C       -1.41830000      -1.68320000      -1.12900000
C       -1.27830000      -0.71820000      -0.02150000
N       -2.19580000      -0.53700000       0.84450000
H        0.81240000       1.73210000       0.55480000
H        2.12310000      -0.00900000       0.09000000
H       -2.45420000      -1.95010000      -1.34590000
H       -2.99760000      -1.14690000       0.66040000
