15
Properties=species:S:1:pos:R:3 gdb_29611=T pbc="F F F"
N        0.35130000       1.33890000       0.26830000
C        0.11310000      -0.02930000       0.07000000
C       -1.05370000      -0.74550000       0.23760000
N       -0.77170000      -2.07730000       0.00350000
C        0.54630000      -2.23690000      -0.31280000
C        1.11240000      -0.98180000      -0.27560000
O        2.41910000      -0.64060000      -0.58170000
C        3.37660000      -0.96870000       0.32840000
O        4.53190000      -0.74350000       0.14410000
H        1.14790000       1.65870000      -0.26890000
H       -0.45070000       1.91640000       0.05260000
H       -2.04480000      -0.42230000       0.50890000
H       -1.44290000      -2.82140000       0.05580000
H        0.97200000      -3.19490000      -0.55910000
H        2.94450000      -1.46020000       1.21880000
