21
Properties=species:S:1:pos:R:3 gdb_103494=T pbc="F F F"
C        0.12480000       1.50150000       0.20240000
C       -0.13300000       0.00730000      -0.03600000
C        0.64890000      -0.54540000      -1.21300000
O        0.32390000       0.05840000      -2.44680000
C        2.08850000      -1.02040000      -1.12380000
C        2.65510000      -1.43280000       0.22260000
O        1.69640000      -2.30660000       0.81810000
C        0.92680000      -2.93310000      -0.20870000
C        0.96210000      -2.00300000      -1.40550000
H        1.18490000       1.69790000       0.39810000
H       -0.17820000       2.10480000      -0.66060000
H       -0.44490000       1.86330000       1.06310000
H        0.11510000      -0.55820000       0.86490000
H       -1.20020000      -0.14970000      -0.23570000
H        0.66380000       0.95940000      -2.43180000
H        2.77110000      -0.71850000      -1.90980000
H        3.61960000      -1.94480000       0.07480000
H        2.81470000      -0.60810000       0.92640000
H        1.35850000      -3.90720000      -0.48770000
H       -0.07310000      -3.10920000       0.20300000
H        0.81210000      -2.41400000      -2.39660000
