19
Properties=species:S:1:pos:R:3 gdb_90268=T pbc="F F F"
O       -0.15100000       1.43880000       0.10740000
C       -0.01240000       0.03450000       0.04940000
C        0.30710000      -0.66800000       1.41760000
C       -1.15650000      -1.06220000       1.48360000
O       -1.69570000      -2.19800000       2.13670000
C       -2.91790000      -1.46720000       2.43880000
C       -2.34220000      -0.14510000       1.87700000
C       -2.63280000       0.16910000       0.38210000
C       -1.40250000      -0.68550000      -0.01830000
H        0.71180000       1.81470000       0.30750000
H        0.66490000      -0.25840000      -0.76210000
H        0.95270000      -1.54060000       1.27240000
H        0.71410000      -0.04710000       2.22240000
H       -3.78200000      -1.87540000       1.89970000
H       -3.12390000      -1.47890000       3.51460000
H       -2.25440000       0.68240000       2.58090000
H       -3.58670000      -0.22360000       0.01840000
H       -2.55580000       1.22360000       0.11500000
H       -1.49400000      -1.41890000      -0.81970000
