18
Properties=species:S:1:pos:R:3 gdb_44733=T pbc="F F F"
N       -0.06080000       1.30920000      -0.38550000
C       -0.00670000       0.09860000      -0.02060000
C       -1.29660000      -0.70380000       0.13980000
C       -1.10910000      -1.98800000       0.97790000
C        0.12810000      -2.70920000       0.40260000
C        1.21140000      -1.76780000       0.93350000
O        1.19640000      -0.53130000       0.16330000
C        0.72260000      -1.49020000       2.34620000
C       -0.60560000      -1.61200000       2.36490000
H        0.88460000       1.68950000      -0.46990000
H       -2.04610000      -0.03290000       0.56530000
H       -1.64870000      -0.97190000      -0.86400000
H       -2.02380000      -2.58520000       0.97870000
H        0.24450000      -3.70640000       0.83500000
H        0.13570000      -2.78400000      -0.68820000
H        2.23640000      -2.12740000       0.84480000
H        1.36290000      -1.14580000       3.14790000
H       -1.26120000      -1.39140000       3.19910000
