20
Properties=species:S:1:pos:R:3 gdb_69117=T pbc="F F F"
C       -0.03090000       1.51900000      -0.03760000
C       -0.02500000       0.01190000       0.05440000
C       -1.29290000      -0.73520000      -0.35440000
C       -1.12620000      -2.17120000       0.18610000
C       -0.22830000      -2.02820000       1.43470000
C        0.62370000      -0.79920000       1.16250000
N        1.25290000      -0.65480000      -0.17130000
C        1.36490000      -0.16410000       2.28080000
O        1.19200000      -0.43730000       3.44460000
H        0.93410000       1.93870000       0.25270000
H       -0.23250000       1.83110000      -1.06880000
H       -0.81050000       1.95010000       0.59930000
H       -2.15280000      -0.24000000       0.11260000
H       -1.45730000      -0.70310000      -1.43780000
H       -2.08440000      -2.64370000       0.41400000
H       -0.64270000      -2.80750000      -0.56280000
H       -0.81660000      -1.84180000       2.33880000
H        0.37420000      -2.92160000       1.62880000
H        1.15750000      -1.51500000      -0.70590000
H        2.10820000       0.59730000       1.96080000
