18
Properties=species:S:1:pos:R:3 gdb_103819=T pbc="F F F"
N       -0.47470000       1.22850000       0.03160000
C       -0.12020000      -0.06270000      -0.19620000
O        1.06040000      -0.39000000      -0.32390000
C       -1.22850000      -1.04660000      -0.25350000
C       -1.10490000      -2.20620000      -1.25010000
C       -0.90780000      -2.47740000       0.20340000
O        0.34790000      -2.77860000       0.70050000
C       -1.96320000      -3.21720000       1.01020000
O       -3.28610000      -3.00040000       0.55030000
H        0.25360000       1.91980000       0.10450000
H       -1.43330000       1.51480000       0.11890000
H       -2.23390000      -0.69300000      -0.05320000
H       -2.02270000      -2.50600000      -1.74380000
H       -0.21510000      -2.20580000      -1.87020000
H        0.95400000      -2.08760000       0.36800000
H       -1.70040000      -4.28430000       1.02170000
H       -1.92440000      -2.86150000       2.04470000
H       -3.43660000      -3.57580000      -0.20510000
