18
Properties=species:S:1:pos:R:3 gdb_69705=T pbc="F F F"
C        0.08440000       1.53200000       0.08000000
C       -0.06560000       0.04410000      -0.03160000
C       -0.94710000      -0.75510000       0.84120000
N        0.51840000      -0.91210000       1.01390000
C        1.04590000      -1.76240000      -0.13370000
C        0.51380000      -0.77540000      -1.20630000
C       -0.36750000      -1.88010000      -1.84960000
C        0.11400000      -2.84660000      -0.73690000
O       -0.11900000      -3.98900000      -0.47510000
H        1.10160000       1.84760000      -0.17610000
H       -0.60840000       2.04220000      -0.60010000
H       -0.12890000       1.86810000       1.09880000
H       -1.39190000      -0.23590000       1.68530000
H       -1.55030000      -1.57970000       0.47360000
H        2.09480000      -2.01800000       0.01790000
H        1.18700000      -0.22500000      -1.86030000
H       -1.44660000      -1.71550000      -1.91770000
H       -0.00350000      -2.20230000      -2.83130000
