10
Properties=species:S:1:pos:R:3 gdb_23818=T pbc="F F F"
F        0.00360000       0.03470000       0.12660000
C       -0.00400000       1.35510000       0.03880000
C       -1.16070000       2.03270000      -0.02700000
O       -1.22270000       3.37250000      -0.11710000
N        0.04680000       4.11780000      -0.14350000
N        1.09150000       3.49460000      -0.08330000
C        1.24960000       2.06400000       0.01430000
N        2.40010000       1.52870000       0.07030000
H       -2.13470000       1.55610000      -0.01290000
H        3.12170000       2.25110000       0.03540000
