15
Properties=species:S:1:pos:R:3 gdb_113639=T pbc="F F F"
O       -0.15740000       1.52380000      -0.64070000
C        0.03960000       0.34170000       0.11680000
C       -1.26440000      -0.41650000       0.23480000
N       -1.66620000      -1.16940000      -0.94480000
C       -1.36680000      -1.92430000       0.28150000
C       -0.15940000      -2.80170000       0.26010000
O        0.77110000      -2.71660000      -0.50090000
C       -0.16440000      -3.83690000       1.31990000
N       -0.18010000      -4.64340000       2.14840000
H       -0.34960000       1.24610000      -1.54340000
H        0.80960000      -0.30120000      -0.32280000
H        0.37600000       0.66150000       1.10810000
H       -2.04130000       0.10560000       0.79170000
H       -2.67250000      -1.14000000      -1.08620000
H       -2.19100000      -2.32300000       0.86790000
