16
Properties=species:S:1:pos:R:3 gdb_42563=T pbc="F F F"
O        0.04530000       0.10940000      -0.18580000
C        0.02930000       1.30330000      -0.11420000
C       -1.05300000       2.33690000       0.04620000
C       -0.08410000       3.15470000       0.86230000
C        1.10350000       2.38820000       0.15220000
C        0.83530000       3.34010000      -1.00350000
C        1.67650000       4.42610000      -1.57220000
C        1.17450000       3.28660000      -2.45220000
N       -0.51700000       3.65710000      -0.44960000
H       -2.12520000       2.23350000       0.13810000
H       -0.21410000       3.64370000       1.81720000
H        2.08800000       2.13120000       0.53300000
H        1.21040000       5.39790000      -1.69810000
H        2.73030000       4.45420000      -1.31640000
H        1.88660000       2.54100000      -2.79050000
H        0.38420000       3.51260000      -3.15980000
