18
Properties=species:S:1:pos:R:3 gdb_66256=T pbc="F F F"
C       -0.05820000       1.59410000      -0.03280000
C        0.04150000       0.06260000      -0.04610000
C        0.86960000      -0.52780000      -1.21740000
C        1.47930000      -1.81630000      -0.63250000
N        1.62710000      -1.47000000       0.77130000
C        0.83560000      -0.44530000       1.20040000
O        0.75850000      -0.00650000       2.32410000
C       -1.28610000      -0.55140000       0.00150000
C       -2.37300000      -1.06500000       0.02810000
H        0.93890000       2.03910000      -0.10540000
H       -0.66610000       1.95200000      -0.86790000
H       -0.51200000       1.92170000       0.90470000
H        0.27100000      -0.71270000      -2.11010000
H        1.67010000       0.17370000      -1.47210000
H        0.80830000      -2.67480000      -0.77020000
H        2.44470000      -2.06120000      -1.08500000
H        2.12820000      -2.03560000       1.43780000
H       -3.33680000      -1.50950000       0.06490000
