21
Properties=species:S:1:pos:R:3 gdb_69360=T pbc="F F F"
C        0.22060000       1.51330000      -0.09940000
C        0.11320000       0.01620000      -0.05770000
C       -0.92270000      -0.72240000       0.74280000
C        0.53590000      -0.97000000       1.03380000
C        1.16270000      -1.91100000      -0.02930000
C        0.69410000      -3.36630000      -0.05430000
C        0.67090000      -0.92710000      -1.13810000
C        2.66970000      -1.86900000       0.14500000
O        3.44110000      -1.19190000      -0.48470000
H        1.24360000       1.83090000      -0.32890000
H       -0.43940000       1.93670000      -0.86640000
H       -0.06340000       1.95700000       0.86070000
H       -1.43590000      -0.13440000       1.49830000
H       -1.54460000      -1.48900000       0.28620000
H        0.96170000      -0.77210000       2.01220000
H       -0.39710000      -3.42780000      -0.04340000
H        1.05010000      -3.88030000      -0.95410000
H        1.06660000      -3.91750000       0.81720000
H       -0.06310000      -1.33040000      -1.84300000
H        1.51620000      -0.50790000      -1.68690000
H        3.03680000      -2.53360000       0.96320000
