12
Properties=species:S:1:pos:R:3 gdb_2984=T pbc="F F F"
O        0.16740000       1.54800000      -0.11520000
C        0.06180000       0.14870000       0.06340000
C        0.53370000      -0.58200000      -1.13090000
N        0.94580000      -1.12170000      -2.06550000
C        0.79740000      -0.32930000       1.30870000
C        0.11460000      -0.33980000       2.60450000
O        0.33730000      -1.54950000       1.87180000
H        1.07020000       1.75820000      -0.38070000
H       -1.00360000      -0.06550000       0.19610000
H        1.88190000      -0.21350000       1.27670000
H        0.69640000      -0.23250000       3.51760000
H       -0.92230000      -0.01370000       2.66670000
