19
Properties=species:S:1:pos:R:3 gdb_86562=T pbc="F F F"
C        0.47220000       0.92350000       0.30950000
C       -0.05740000      -0.27090000      -0.44470000
O        0.66740000      -0.94380000      -1.15790000
C       -1.50300000      -0.64100000      -0.20400000
C       -2.13240000      -1.54680000      -1.30040000
C       -1.79440000      -2.80910000      -0.46870000
O       -0.57700000      -3.43780000      -0.81510000
C       -1.60650000      -1.89230000       0.78020000
O       -0.52980000      -2.20350000       1.60490000
H        1.51670000       1.10380000       0.05360000
H       -0.12920000       1.81530000       0.10480000
H        0.38580000       0.71370000       1.38280000
H       -2.07680000       0.23280000       0.11080000
H       -3.20840000      -1.38420000      -1.39410000
H       -1.67210000      -1.49940000      -2.28950000
H       -2.55100000      -3.59390000      -0.39820000
H        0.00220000      -2.75340000      -1.19650000
H       -2.51390000      -1.80190000       1.38510000
H        0.00580000      -2.82680000       1.08640000
