16
Properties=species:S:1:pos:R:3 gdb_22462=T pbc="F F F"
O       -0.08580000       1.42740000       0.01060000
N        0.07160000       0.04970000       0.00160000
C       -1.04840000      -0.58070000       0.00900000
C       -1.01850000      -2.09280000       0.00050000
C        0.39800000      -2.69590000      -0.01630000
C        0.36400000      -4.15300000      -0.02410000
C        0.31100000      -5.35380000      -0.02990000
C       -2.32670000       0.05010000       0.02460000
C       -3.43520000       0.51910000       0.03780000
H        0.82580000       1.74070000       0.00350000
H       -1.56730000      -2.45780000       0.87660000
H       -1.58400000      -2.44830000      -0.86900000
H        0.94240000      -2.32670000      -0.89230000
H        0.95900000      -2.33630000       0.85310000
H        0.27930000      -6.41490000      -0.03450000
H       -4.40460000       0.95350000       0.04940000
