19
Properties=species:S:1:pos:R:3 gdb_11334=T pbc="F F F"
C        0.08600000       1.45000000      -0.04760000
N        0.18400000      -0.00100000      -0.06820000
C        0.54080000      -0.61630000       0.96980000
C        0.70260000      -2.11480000       1.09990000
C        0.61520000      -2.34600000       2.61680000
C        1.32040000      -3.59320000       3.14050000
C        1.19980000      -1.02370000       3.13910000
O        0.83960000      -0.02550000       2.17630000
H        0.89730000       1.87710000      -0.65020000
H       -0.85280000       1.74890000      -0.52620000
H        0.13150000       1.89270000       0.95380000
H       -0.04420000      -2.64690000       0.51030000
H        1.69290000      -2.40530000       0.72440000
H       -0.44390000      -2.38230000       2.90110000
H        2.38010000      -3.59280000       2.86100000
H        1.26140000      -3.65610000       4.23250000
H        0.86800000      -4.50200000       2.73220000
H        0.80220000      -0.71710000       4.11020000
H        2.29560000      -1.07580000       3.21170000
