23
Properties=species:S:1:pos:R:3 gdb_119874=T pbc="F F F"
C       -0.04420000       1.54930000      -0.15700000
C       -0.05170000       0.01990000      -0.21610000
C       -1.41570000      -0.58000000       0.17460000
C       -1.45040000      -2.07790000       0.13970000
C       -1.68820000      -2.91910000       1.14790000
C       -1.62990000      -4.36990000       0.73400000
C       -1.64090000      -4.27930000      -0.81120000
C       -1.16140000      -2.84570000      -1.13670000
O       -1.84150000      -2.23540000      -2.23120000
H        0.93180000       1.95540000      -0.44100000
H       -0.79250000       1.97370000      -0.83550000
H       -0.27330000       1.90850000       0.85270000
H        0.20430000      -0.30740000      -1.23050000
H        0.72400000      -0.38160000       0.44810000
H       -1.69660000      -0.23180000       1.17590000
H       -2.17150000      -0.19360000      -0.52180000
H       -1.87680000      -2.61160000       2.17180000
H       -0.71200000      -4.84870000       1.10370000
H       -2.46240000      -4.96300000       1.12980000
H       -1.04290000      -5.05660000      -1.29580000
H       -2.66800000      -4.36180000      -1.18140000
H       -0.07580000      -2.83300000      -1.33670000
H       -1.54960000      -2.66740000      -3.03970000
