19
Properties=species:S:1:pos:R:3 gdb_72210=T pbc="F F F"
O        0.10550000       1.35360000       0.12530000
C        0.01280000      -0.03860000       0.03030000
C        0.25250000      -0.67150000      -1.39880000
C       -1.19670000      -1.30970000      -1.41470000
C       -1.26500000      -2.84690000      -1.22080000
C       -0.60210000      -2.98950000       0.14840000
C       -0.65550000      -1.82550000       0.80250000
C        0.43090000      -0.89400000       1.29920000
C       -1.36980000      -0.73680000       0.00620000
H        1.03570000       1.59870000       0.06430000
H        0.34530000       0.13300000      -2.13180000
H        1.09400000      -1.35940000      -1.51400000
H       -1.83610000      -0.92720000      -2.21450000
H       -2.29960000      -3.21470000      -1.27880000
H       -0.69560000      -3.39540000      -1.98150000
H        0.05390000      -3.81810000       0.39360000
H        1.44220000      -1.30100000       1.38790000
H        0.18190000      -0.30220000       2.18690000
H       -2.28210000      -0.28460000       0.39700000
