22
Properties=species:S:1:pos:R:3 gdb_120821=T pbc="F F F"
C        0.54420000       1.16330000       0.57000000
C        0.31240000      -0.30040000       0.18780000
C        1.16190000      -0.73720000      -1.00690000
N        0.92850000      -2.14910000      -1.30280000
C       -0.08250000      -2.47960000      -2.30070000
C        1.36200000      -2.72480000      -2.57430000
C        2.10490000      -1.93430000      -3.64060000
C        3.58620000      -1.82920000      -3.33660000
O        4.22080000      -0.80680000      -3.35060000
H        1.59090000       1.34290000       0.83960000
H        0.29770000       1.83700000      -0.25840000
H       -0.07330000       1.45080000       1.42610000
H        0.53920000      -0.95760000       1.03460000
H       -0.74660000      -0.46080000      -0.05160000
H        0.94610000      -0.07660000      -1.86410000
H        2.22580000      -0.61190000      -0.77070000
H       -0.75380000      -3.30030000      -2.06110000
H       -0.54870000      -1.65520000      -2.84130000
H        1.73100000      -3.74540000      -2.46660000
H        2.00820000      -2.47910000      -4.59180000
H        1.70340000      -0.93050000      -3.79070000
H        4.07210000      -2.80280000      -3.08990000
