16
Properties=species:S:1:pos:R:3 gdb_71186=T pbc="F F F"
O       -0.06590000       1.43290000       0.00220000
C       -0.03550000       0.05460000      -0.00890000
C        0.48810000      -0.76950000      -1.21900000
C       -0.48910000      -1.84060000      -0.74230000
C       -1.31270000      -0.86620000       0.00760000
N       -0.52200000      -1.87410000       0.76810000
C        0.43260000      -0.78860000       1.21500000
C        1.83120000      -1.13020000       1.38530000
C        2.99970000      -1.38780000       1.51130000
H        0.81990000       1.76380000      -0.18640000
H        0.14680000      -0.32550000      -2.15750000
H        1.55640000      -0.99980000      -1.26040000
H       -0.78480000      -2.75630000      -1.23630000
H       -2.37270000      -0.69320000       0.13000000
H        0.01970000      -0.36910000       2.13740000
H        4.02710000      -1.62770000       1.63400000
