20
Properties=species:S:1:pos:R:3 gdb_113238=T pbc="F F F"
C       -0.01920000       1.71450000       0.07580000
C       -0.05370000       0.19740000       0.10180000
C       -1.37520000      -0.39350000      -0.39490000
C       -1.65690000      -0.05930000      -1.79350000
N       -1.86560000       0.21570000      -2.89630000
C        1.20100000      -0.58530000      -0.20480000
C        0.63390000      -0.59450000       1.19510000
C        1.37150000       0.04710000       2.34230000
O        2.29190000      -0.91340000       2.84300000
H        0.95510000       2.10490000       0.37660000
H       -0.22260000       2.08250000      -0.93550000
H       -0.77530000       2.14380000       0.74420000
H       -1.36490000      -1.48460000      -0.30050000
H       -2.21010000      -0.03100000       0.21840000
H        1.12530000      -1.48670000      -0.80350000
H        2.11220000      -0.02000000      -0.37120000
H        0.13290000      -1.51180000       1.49580000
H        1.89300000       0.95560000       2.00670000
H        0.65570000       0.35130000       3.12350000
H        2.72340000      -0.53870000       3.61670000
