13
Properties=species:S:1:pos:R:3 gdb_129420=T pbc="F F F"
N       -0.15480000       1.30290000       0.01930000
C        0.06900000      -0.04490000       0.12570000
N        1.07890000      -0.71030000       0.48260000
O       -1.11680000      -0.69860000      -0.18750000
C       -1.11420000      -2.03540000      -0.13610000
N       -1.64990000      -2.78430000       0.77230000
C       -1.43440000      -4.02940000       0.23650000
N       -0.82220000      -4.05180000      -0.91660000
O       -0.60650000      -2.69010000      -1.18030000
H        0.65960000       1.88870000      -0.05960000
H       -0.94670000       1.58660000      -0.53620000
H        1.88010000      -0.12300000       0.69440000
H       -1.74470000      -4.94450000       0.71970000
