18
Properties=species:S:1:pos:R:3 gdb_41924=T pbc="F F F"
C        0.07360000       1.49140000       0.29520000
O        1.14910000       2.17680000      -0.33540000
C        2.18870000       1.38940000      -0.87700000
C        2.34160000       0.04830000      -0.16140000
N        1.12780000      -0.77420000      -0.27530000
C       -0.08630000       0.04350000      -0.11510000
C        0.30280000      -0.45780000      -1.46100000
C        0.81740000       0.44580000      -2.57270000
O        2.00240000       1.16450000      -2.25630000
H        0.20680000       1.53090000       1.38810000
H       -0.84060000       2.05140000       0.06340000
H        3.09810000       1.99370000      -0.81420000
H        3.18230000      -0.49290000      -0.60500000
H        2.55660000       0.20010000       0.90230000
H       -0.90120000      -0.45880000       0.40550000
H       -0.24670000      -1.31890000      -1.83680000
H        1.05910000      -0.16680000      -3.44790000
H        0.02370000       1.14660000      -2.87320000
