20
Properties=species:S:1:pos:R:3 gdb_58967=T pbc="F F F"
C       -0.02890000       1.54800000       0.01540000
C       -0.02630000       0.01940000       0.01230000
O        0.82820000      -0.52270000       1.01480000
C       -1.43170000      -0.55020000       0.12350000
C       -2.17740000      -0.50880000       1.47830000
O       -2.51800000      -1.90920000       1.38450000
C       -1.81120000      -2.05420000       0.13780000
C       -2.71310000      -1.77910000      -1.08200000
N       -2.27370000      -0.35010000      -1.08110000
H        0.98910000       1.93080000      -0.09540000
H       -0.63860000       1.93210000      -0.80760000
H       -0.44080000       1.93910000       0.95530000
H        0.38850000      -0.33190000      -0.93930000
H        0.66660000      -0.04820000       1.83680000
H       -1.55120000      -0.31580000       2.36060000
H       -3.06070000       0.14220000       1.52200000
H       -1.11760000      -2.89610000       0.13750000
H       -2.43570000      -2.29260000      -2.00960000
H       -3.77260000      -1.95910000      -0.87230000
H       -3.02140000       0.32760000      -0.97200000
