13
Properties=species:S:1:pos:R:3 gdb_132714=T pbc="F F F"
F        0.00020000       0.01430000       0.00340000
C       -0.00420000       1.34690000       0.01040000
C       -1.21690000       2.02920000       0.02980000
N       -1.29100000       3.35560000       0.03770000
C       -0.14200000       4.05590000       0.02620000
C        1.11610000       3.43580000       0.00650000
C        1.18960000       2.05020000      -0.00160000
C       -0.23680000       5.48260000       0.03480000
C       -0.27960000       6.68510000       0.04160000
H       -2.14890000       1.47000000       0.03910000
H        2.01440000       4.04120000      -0.00220000
H        2.13620000       1.52270000      -0.01680000
H       -0.33690000       7.74560000       0.04770000
