16
Properties=species:S:1:pos:R:3 gdb_124069=T pbc="F F F"
C        0.08660000       1.57280000      -0.04570000
O        1.51810000       1.49480000       0.07430000
C        1.46460000       0.08330000       0.34740000
C       -0.05050000       0.02580000       0.00670000
C       -0.98600000      -0.58090000       0.98750000
C       -1.18750000      -0.40940000       2.34190000
N       -2.19220000      -1.22980000       2.75520000
N       -2.63470000      -1.90890000       1.73630000
N       -1.91150000      -1.52220000       0.66830000
H       -0.37550000       2.08610000       0.80730000
H       -0.22720000       2.06020000      -0.97510000
H        2.13380000      -0.49190000      -0.30150000
H        1.69020000      -0.14670000       1.39660000
H       -0.22180000      -0.39510000      -0.98710000
H       -0.67620000       0.24550000       3.02900000
H       -2.10200000      -1.93650000      -0.23090000
