19
Properties=species:S:1:pos:R:3 gdb_104290=T pbc="F F F"
O       -0.08700000       1.37400000       0.06850000
C       -0.00880000      -0.04330000       0.25110000
C       -1.43460000      -0.54660000       0.04120000
O       -2.29220000       0.07650000       0.96660000
C       -1.87660000      -0.50610000      -1.45860000
C       -1.62310000      -2.03310000      -1.56010000
C       -1.62790000      -2.08440000       0.00670000
C       -0.68990000      -3.05700000       0.65750000
O        0.28910000      -2.78260000       1.30800000
H        0.70410000       1.77030000       0.44320000
H        0.68450000      -0.49930000      -0.46930000
H        0.32780000      -0.29900000       1.25950000
H       -1.99960000       0.99700000       1.01080000
H       -2.93980000      -0.26520000      -1.52260000
H       -1.31330000       0.14790000      -2.12630000
H       -2.37100000      -2.63790000      -2.07430000
H       -0.63820000      -2.26830000      -1.97270000
H       -2.64450000      -2.30660000       0.35250000
H       -0.95700000      -4.12350000       0.46510000
