16
Properties=species:S:1:pos:R:3 gdb_49580=T pbc="F F F"
O        0.00520000      -0.09270000       0.06400000
C        0.01970000       1.08650000      -0.18950000
C        1.24850000       1.95160000      -0.04090000
C        1.54880000       2.92790000      -1.19280000
N        0.38040000       3.83670000      -1.28370000
C        1.44760000       4.11320000      -0.30450000
C        1.16450000       3.22620000       0.92450000
C       -0.03840000       3.46940000       1.69530000
C       -1.02990000       3.66440000       2.34620000
H       -0.87720000       1.61600000      -0.56500000
H        2.09660000       1.32090000       0.22760000
H        2.18620000       2.74400000      -2.04780000
H        0.53220000       4.44990000      -2.08330000
H        1.98690000       5.05160000      -0.31030000
H        2.03640000       3.20170000       1.58420000
H       -1.91030000       3.83860000       2.91400000
