18
Properties=species:S:1:pos:R:3 gdb_52428=T pbc="F F F"
N       -0.79730000       1.06650000      -0.40810000
C       -0.79630000      -0.18430000      -0.57210000
O       -0.75190000      -0.99670000       0.50820000
C       -0.89130000      -2.39190000       0.27600000
C       -2.34780000      -2.81430000       0.19200000
O       -2.87590000      -2.33050000      -1.02510000
C       -4.27720000      -2.51150000      -1.13070000
C       -4.74560000      -2.01200000      -2.41580000
C       -5.15790000      -1.60880000      -3.46880000
H       -0.80650000       1.53020000      -1.31430000
H       -0.81710000      -0.72390000      -1.52550000
H       -0.36770000      -2.69030000      -0.64160000
H       -0.41340000      -2.88860000       1.12470000
H       -2.41620000      -3.91460000       0.24050000
H       -2.89830000      -2.40150000       1.05180000
H       -4.53410000      -3.57990000      -1.03190000
H       -4.79380000      -1.98310000      -0.31240000
H       -5.51890000      -1.24890000      -4.40060000
