8
Properties=species:S:1:pos:R:3 gdb_7=T pbc="F F F"
C       -0.01870000       1.52560000       0.01040000
C        0.00210000      -0.00390000       0.00200000
H        0.99490000       1.93970000       0.00290000
H       -0.54210000       1.92360000      -0.86510000
H       -0.52520000       1.91420000       0.90000000
H        0.52550000      -0.40190000       0.87750000
H       -1.01150000      -0.41800000       0.00950000
H        0.50860000      -0.39250000      -0.88760000
