15
Properties=species:S:1:pos:R:3 gdb_4075=T pbc="F F F"
O       -0.23960000       1.30350000       0.44980000
N       -0.04810000      -0.08580000       0.33070000
C       -1.08290000      -0.64410000      -0.13570000
C       -2.47320000      -0.18970000      -0.55020000
C       -2.82270000      -1.68480000      -0.67520000
C       -4.06620000      -2.38090000      -0.35130000
O       -3.61760000      -2.22430000      -1.70810000
C       -1.36400000      -2.11170000      -0.40680000
H        0.60290000       1.59390000       0.81620000
H       -3.02430000       0.39820000       0.18880000
H       -2.49460000       0.34160000      -1.50780000
H       -4.03300000      -3.39850000       0.03590000
H       -4.95450000      -1.80940000      -0.08540000
H       -0.86770000      -2.49940000      -1.30290000
H       -1.19200000      -2.80440000       0.42130000
