19
Properties=species:S:1:pos:R:3 gdb_84023=T pbc="F F F"
O        0.18530000       1.32270000      -0.09390000
C        0.01740000      -0.06000000      -0.07660000
C       -0.49680000      -0.68580000       1.20790000
O       -0.74710000       0.23880000       2.22950000
C       -2.13080000       0.55230000       2.40970000
C       -2.72510000       1.15440000       1.13980000
C       -2.64600000       0.14720000      -0.02260000
C       -1.36810000      -0.67580000      -0.02580000
O       -1.47940000      -1.94700000      -0.61600000
H        0.20990000       1.59580000       0.83470000
H        0.76650000      -0.60990000      -0.64240000
H       -0.09520000      -1.63630000       1.54910000
H       -2.68090000      -0.35370000       2.70550000
H       -2.16240000       1.25960000       3.24280000
H       -3.76800000       1.43770000       1.31880000
H       -2.17680000       2.06740000       0.89080000
H       -3.46320000      -0.57760000       0.07200000
H       -2.77880000       0.65930000      -0.98300000
H       -1.45750000      -1.82850000      -1.57260000
