17
Properties=species:S:1:pos:R:3 gdb_104709=T pbc="F F F"
O       -0.05740000       1.67770000       0.04200000
C        0.03820000       0.27050000      -0.11470000
C       -1.30020000      -0.42930000       0.07130000
C       -2.44760000       0.29940000      -0.63870000
O       -2.09740000       0.70800000      -1.94440000
C       -1.24840000      -1.96740000      -0.01630000
C       -1.61830000      -1.91110000       1.46480000
O       -1.82690000      -2.66870000       2.35470000
O       -1.64340000      -0.53660000       1.51220000
H       -0.29960000       1.85610000       0.95780000
H        0.37890000       0.10080000      -1.14010000
H        0.77860000      -0.16790000       0.56910000
H       -3.31280000      -0.36560000      -0.72490000
H       -2.74710000       1.14680000      -0.00870000
H       -1.52710000       1.47940000      -1.84290000
H       -1.99160000      -2.43860000      -0.66090000
H       -0.26740000      -2.40840000      -0.20750000
