14
Properties=species:S:1:pos:R:3 gdb_43498=T pbc="F F F"
N       -0.08310000       1.34570000      -0.09390000
C       -0.01710000       0.08520000       0.02720000
C       -1.26500000      -0.75460000       0.12400000
C       -1.06350000      -2.00370000       0.93020000
N       -1.93180000      -2.48010000       1.70250000
O        0.14120000      -2.66830000       0.71230000
C        1.27340000      -2.03390000       0.28110000
O        2.30120000      -2.63640000       0.16490000
N        1.15210000      -0.67860000       0.03380000
H        0.83990000       1.77570000      -0.18100000
H       -2.08210000      -0.16950000       0.53940000
H       -1.54720000      -1.05230000      -0.89570000
H       -1.60800000      -3.35300000       2.12370000
H        2.03140000      -0.23230000      -0.18650000
