18
Properties=species:S:1:pos:R:3 gdb_97888=T pbc="F F F"
C       -0.68460000       0.74710000      -0.98170000
N       -1.15550000      -0.37990000      -0.20280000
C       -0.60120000      -0.72380000       0.98400000
O        0.32740000      -0.13970000       1.51160000
C       -1.22410000      -1.95370000       1.68580000
C       -2.32830000      -2.59680000       0.99120000
C       -3.23610000      -3.08130000       0.36530000
C       -4.33040000      -3.64680000      -0.41360000
O       -4.48900000      -2.87680000      -1.60190000
H       -0.32770000       0.42690000      -1.96690000
H       -1.47700000       1.49040000      -1.12270000
H        0.14050000       1.20360000      -0.43360000
H       -1.92340000      -0.93660000      -0.54710000
H       -0.40040000      -2.65730000       1.85100000
H       -1.53140000      -1.61120000       2.68040000
H       -4.10720000      -4.70010000      -0.64750000
H       -5.25140000      -3.64140000       0.19120000
H       -5.21460000      -3.26360000      -2.10280000
