13
Properties=species:S:1:pos:R:3 gdb_129570=T pbc="F F F"
N       -0.28050000       1.58010000      -0.11980000
C        0.00630000       0.15290000      -0.04630000
C       -1.21940000      -0.59440000       0.29040000
N       -2.16510000      -1.20920000       0.53660000
C        0.64850000      -0.46530000      -1.27820000
N        1.22570000       0.27730000      -2.18260000
O        1.72500000      -0.58570000      -3.11300000
N        1.45230000      -1.88290000      -2.78570000
C        0.79290000      -1.82990000      -1.66280000
H        0.58560000       2.07720000      -0.30630000
H       -0.89070000       1.76660000      -0.91090000
H        0.69790000       0.00270000       0.79480000
H        0.43770000      -2.72500000      -1.17670000
