15
Properties=species:S:1:pos:R:3 gdb_32032=T pbc="F F F"
C        0.08810000       1.41840000      -0.05440000
N       -0.09200000      -0.02010000      -0.12240000
C       -1.27480000      -0.63700000      -0.01140000
N       -2.39830000       0.00700000       0.17200000
C       -3.48480000      -0.81110000       0.25810000
N       -3.52280000      -2.10700000       0.18090000
C       -2.32750000      -2.76300000      -0.01230000
N       -2.11150000      -4.00190000      -0.11810000
O       -1.15740000      -1.96570000      -0.11030000
H        0.74580000       1.68720000       0.77830000
H        0.52080000       1.79880000      -0.98510000
H       -0.88990000       1.87240000       0.09920000
H        0.70470000      -0.62180000      -0.26170000
H       -4.43260000      -0.29740000       0.41090000
H       -3.00460000      -4.48500000      -0.03540000
