22
Properties=species:S:1:pos:R:3 gdb_105369=T pbc="F F F"
C       -0.21550000       1.66090000       0.04970000
C       -0.52160000       0.21400000       0.44040000
C        0.57580000      -0.50510000       1.20610000
C        0.26860000      -1.95180000       1.56170000
N        0.09080000      -2.76430000       0.36290000
C        1.27090000      -3.46080000      -0.13870000
C        0.17670000      -4.20800000       0.54090000
C        1.98460000      -0.08280000       1.15490000
O        1.17060000       0.22300000       2.29150000
H        0.55960000       1.71910000      -0.72110000
H       -1.11040000       2.14520000      -0.35130000
H        0.12100000       2.23380000       0.91850000
H       -1.42050000       0.19040000       1.07190000
H       -0.75910000      -0.38910000      -0.44220000
H        1.06690000      -2.33160000       2.22240000
H       -0.66910000      -1.98610000       2.13090000
H        1.37870000      -3.49730000      -1.21890000
H        2.20470000      -3.34400000       0.40930000
H        0.38280000      -4.58710000       1.54100000
H       -0.53100000      -4.79930000      -0.03320000
H        2.77340000      -0.81370000       1.33160000
H        2.28060000       0.77330000       0.55340000
