25
Properties=species:S:1:pos:R:3 gdb_84004=T pbc="F F F"
C       -0.37480000       1.48490000      -0.08810000
C       -0.05540000       0.00860000       0.00150000
C        1.29680000      -0.59590000      -0.34620000
C        2.51170000       0.26070000      -0.70030000
C        3.40950000       0.54220000       0.51410000
C        2.59710000       1.14460000       1.66380000
C        1.50520000       0.17380000       2.15780000
C        0.77960000      -0.64200000       1.08430000
C        0.27720000      -1.97790000       1.60550000
H        0.47550000       2.12650000       0.14770000
H       -0.70800000       1.74600000      -1.09950000
H       -1.18470000       1.75060000       0.60090000
H       -0.89780000      -0.60430000      -0.31430000
H        1.24770000      -1.53850000      -0.88520000
H        3.09120000      -0.24800000      -1.47740000
H        2.19880000       1.21680000      -1.14010000
H        3.87420000      -0.39470000       0.85010000
H        4.22570000       1.21600000       0.23000000
H        3.25220000       1.39300000       2.50660000
H        2.16020000       2.09500000       1.33560000
H        1.99130000      -0.54950000       2.82590000
H        0.77770000       0.70880000       2.78250000
H       -0.42550000      -1.84110000       2.43720000
H       -0.24150000      -2.54370000       0.82490000
H        1.10450000      -2.59760000       1.97280000
