19
Properties=species:S:1:pos:R:3 gdb_94784=T pbc="F F F"
C        0.06170000       1.59490000       0.02660000
C        0.10670000       0.07070000      -0.02250000
C        0.82920000      -0.57250000      -1.22500000
C        1.17610000      -2.00590000      -0.75600000
C        1.48720000      -1.83580000       0.71910000
C        1.84840000      -2.89000000       1.67520000
O        2.83930000      -1.99890000       1.17760000
C        0.80460000      -0.55750000       1.18750000
O        0.83690000      -0.12340000       2.31020000
H        1.06930000       2.01570000      -0.05380000
H       -0.54160000       1.99970000      -0.79110000
H       -0.36400000       1.93050000       0.97590000
H       -0.92350000      -0.32130000       0.00770000
H        0.22760000      -0.55970000      -2.13690000
H        1.75160000      -0.01680000      -1.43260000
H        0.30840000      -2.66460000      -0.88220000
H        2.01630000      -2.44980000      -1.29420000
H        1.58860000      -2.75570000       2.72380000
H        1.91770000      -3.91820000       1.32090000
