18
Properties=species:S:1:pos:R:3 gdb_17669=T pbc="F F F"
C       -0.08220000       1.74690000       0.30810000
C       -0.06500000       0.25930000       0.01590000
C        1.22560000      -0.39140000      -0.44550000
C        0.69020000      -0.65910000       0.94110000
O        1.30540000      -0.08070000       2.05590000
C       -1.35440000      -0.26450000      -0.54840000
C       -1.57180000      -0.45480000      -1.98880000
O       -1.34280000      -1.57220000      -1.12380000
H        0.82240000       2.04570000       0.83960000
H       -0.15750000       2.32820000      -0.61740000
H       -0.93780000       2.01130000       0.94050000
H        1.16450000      -1.19510000      -1.17060000
H        2.09570000       0.25230000      -0.52310000
H        0.25370000      -1.64210000       1.11530000
H        2.14290000      -0.53360000       2.19850000
H       -2.23310000      -0.06500000       0.06930000
H       -2.57640000      -0.38640000      -2.40300000
H       -0.76170000      -0.23300000      -2.68160000
