17
Properties=species:S:1:pos:R:3 gdb_127474=T pbc="F F F"
C       -0.10500000       1.39260000      -0.08290000
N       -0.02330000      -0.04760000      -0.00580000
N        0.09790000      -0.80710000      -1.10660000
C        0.10630000      -2.04860000      -0.62280000
N        0.16940000      -3.18470000      -1.41100000
C       -0.00870000      -1.99070000       0.78530000
C       -0.02150000      -3.13220000       1.74620000
O        1.03430000      -4.06240000       1.47560000
N       -0.08080000      -0.70480000       1.14020000
H        0.76200000       1.78960000      -0.61740000
H       -1.01490000       1.69730000      -0.60860000
H       -0.12200000       1.77400000       0.93710000
H        0.54210000      -3.01620000      -2.33490000
H        0.63000000      -3.95110000      -0.93730000
H        0.01970000      -2.75220000       2.77510000
H       -0.93900000      -3.72250000       1.64540000
H        1.86500000      -3.58510000       1.57840000
