23
Properties=species:S:1:pos:R:3 gdb_123268=T pbc="F F F"
O       -0.04120000       1.35810000       0.09720000
C        0.01700000      -0.05800000       0.02450000
C       -1.41090000      -0.58660000       0.05580000
C       -1.47850000      -2.11400000      -0.01850000
C       -2.90900000      -2.63410000       0.01010000
O       -2.88130000      -4.04590000      -0.06010000
C       -4.16140000      -4.64900000      -0.02780000
C       -3.93420000      -6.15070000       0.04880000
O       -3.18880000      -6.49870000       1.19840000
H        0.85810000       1.69790000       0.08050000
H        0.51570000      -0.39060000      -0.90090000
H        0.58730000      -0.47860000       0.86920000
H       -1.89170000      -0.22740000       0.97400000
H       -1.96220000      -0.13900000      -0.78040000
H       -0.99590000      -2.47320000      -0.93570000
H       -0.92930000      -2.56050000       0.81980000
H       -3.41990000      -2.30910000       0.93220000
H       -3.48340000      -2.22410000      -0.83780000
H       -4.72120000      -4.30820000       0.85820000
H       -4.74500000      -4.38500000      -0.92530000
H       -4.89660000      -6.66890000       0.11370000
H       -3.43180000      -6.48410000      -0.87360000
H       -2.43630000      -5.89520000       1.20820000
