20
Properties=species:S:1:pos:R:3 gdb_61288=T pbc="F F F"
C        0.33440000       1.35080000      -0.49230000
N       -0.16660000       0.09110000       0.04860000
C        0.51600000      -0.28550000       1.28960000
C        1.94270000      -0.53620000       1.09940000
C        3.11880000      -0.74120000       0.96450000
C       -1.61270000       0.12150000       0.21600000
C       -2.37580000       0.06040000      -1.11490000
C       -1.89350000      -0.95460000      -2.13150000
O       -3.34260000       0.76140000      -1.29990000
H        1.41010000       1.27510000      -0.66440000
H       -0.15370000       1.56460000      -1.44760000
H        0.14590000       2.20670000       0.18230000
H        0.39150000       0.48120000       2.08010000
H        0.04380000      -1.19930000       1.67010000
H        4.15720000      -0.92820000       0.84300000
H       -1.91500000      -0.76840000       0.78560000
H       -1.97820000       1.00530000       0.76700000
H       -1.97490000      -1.96370000      -1.70990000
H       -2.49890000      -0.88530000      -3.03570000
H       -0.83490000      -0.80440000      -2.35770000
