18
Properties=species:S:1:pos:R:3 gdb_72768=T pbc="F F F"
C       -0.14280000       1.54990000      -0.16240000
C       -0.06560000       0.02230000      -0.11750000
C       -1.20960000      -0.59350000       0.76570000
O       -0.26020000      -0.75820000       1.89610000
C        0.75100000      -0.57360000       0.98770000
N        1.86310000      -1.14400000       0.77880000
C        1.99840000      -1.08540000      -0.67520000
C        1.04470000      -2.02050000      -1.37160000
C        0.66820000      -0.56040000      -1.30610000
H        0.81870000       1.97500000      -0.46370000
H       -0.89950000       1.87380000      -0.88540000
H       -0.40610000       1.96240000       0.81590000
H       -2.03070000       0.07000000       1.04130000
H       -1.57150000      -1.57420000       0.44850000
H        2.97900000      -0.88170000      -1.08780000
H        1.32320000      -2.38520000      -2.35510000
H        0.52920000      -2.74890000      -0.75310000
H        0.68710000       0.00520000      -2.23010000
