21
Properties=species:S:1:pos:R:3 gdb_99144=T pbc="F F F"
C        0.19940000       1.45260000      -0.90870000
N        0.29240000       0.01920000      -1.07630000
C        0.70660000      -0.81130000      -0.08880000
O        1.04340000      -0.45620000       1.02810000
C        0.69060000      -2.29960000      -0.46670000
N        0.59570000      -2.51430000      -1.90560000
C        1.80190000      -2.92250000      -2.62540000
C        0.66750000      -3.87340000      -2.45190000
C        0.78930000      -5.09930000      -1.57450000
H        0.82550000       1.98140000      -1.63650000
H       -0.83300000       1.80460000      -1.01950000
H        0.54730000       1.68770000       0.09840000
H        0.04240000      -0.42570000      -1.94780000
H        1.57430000      -2.74830000       0.00590000
H       -0.19020000      -2.73830000       0.01770000
H        1.98300000      -2.43100000      -3.57750000
H        2.69790000      -3.10850000      -2.03440000
H        0.00000000      -4.00970000      -3.30210000
H        1.51830000      -4.96630000      -0.77160000
H       -0.17370000      -5.35790000      -1.12080000
H        1.10970000      -5.95530000      -2.17730000
