10
Properties=species:S:1:pos:R:3 gdb_128866=T pbc="F F F"
N        0.11150000      -3.69250000      -0.01900000
C        0.06180000      -2.53210000      -0.01200000
C        0.00430000      -1.16940000      -0.00380000
C       -0.05120000       0.03740000       0.00350000
C       -0.10320000       1.44470000       0.01190000
N       -1.15770000       2.21310000       0.02970000
C       -0.58890000       3.45810000       0.02910000
N        0.71900000       3.47290000       0.01220000
O        1.05910000       2.12710000       0.00050000
H       -1.16170000       4.37360000       0.04150000
