14
Properties=species:S:1:pos:R:3 gdb_4599=T pbc="F F F"
C        0.01760000       1.52270000       0.21710000
C       -0.03770000       0.04570000      -0.03180000
C       -1.16600000      -0.67720000       0.06050000
O       -1.20850000      -2.01780000      -0.16730000
C       -0.04780000      -2.68610000      -0.51200000
N       -0.02220000      -3.93400000      -0.73790000
C        1.14620000      -1.84210000      -0.59490000
N        1.16720000      -0.57690000      -0.37580000
H        0.71300000       1.74960000       1.03230000
H        0.38200000       2.04950000      -0.67130000
H       -0.96560000       1.92220000       0.47860000
H       -2.14110000      -0.28470000       0.31920000
H       -0.94950000      -4.34720000      -0.63050000
H        2.06560000      -2.35660000      -0.86410000
