20
Properties=species:S:1:pos:R:3 gdb_99314=T pbc="F F F"
N        0.01980000       1.26390000      -0.33590000
C        0.24250000      -0.14400000      -0.05860000
C        0.87000000      -0.44710000       1.30090000
O        1.19000000       0.38750000       2.11140000
O        1.02410000      -1.77090000       1.47580000
C        1.60820000      -2.17970000       2.73410000
C        1.70380000      -3.67590000       2.74150000
C        2.86700000      -4.35930000       2.06930000
C        2.77640000      -4.33560000       3.57330000
H       -0.57400000       1.65260000       0.39190000
H        0.90110000       1.76100000      -0.23760000
H       -0.70400000      -0.69300000      -0.12400000
H        0.88830000      -0.57950000      -0.83030000
H        2.59470000      -1.71440000       2.83530000
H        0.98170000      -1.80170000       3.54860000
H        0.74640000      -4.18600000       2.69110000
H        2.68160000      -5.29520000       1.55490000
H        3.61490000      -3.73230000       1.59540000
H        3.46590000      -3.69590000       4.11440000
H        2.52440000      -5.25270000       4.09320000
