21
Properties=species:S:1:pos:R:3 gdb_113166=T pbc="F F F"
C        0.07890000       1.48220000      -0.19300000
C       -0.03470000       0.06070000       0.37070000
C       -1.41300000      -0.52890000       0.16370000
C       -1.79330000      -1.18390000      -1.13060000
C       -1.60980000      -2.03990000       0.11310000
O       -0.45440000      -2.82350000       0.23530000
C       -2.85250000      -2.56650000       0.77410000
C       -2.72470000      -3.87190000       1.53320000
O       -3.89990000      -1.95680000       0.70240000
H        1.07940000       1.89250000      -0.02410000
H       -0.11450000       1.49630000      -1.27070000
H       -0.64290000       2.15640000       0.28060000
H        0.71070000      -0.59220000      -0.09320000
H        0.19510000       0.07140000       1.44340000
H       -2.22670000      -0.01350000       0.66700000
H       -2.80750000      -1.07010000      -1.49540000
H       -1.01940000      -1.28680000      -1.88540000
H       -0.44630000      -3.46770000      -0.48020000
H       -1.91240000      -3.81370000       2.26370000
H       -3.67150000      -4.09680000       2.02500000
H       -2.46460000      -4.68770000       0.84890000
