16
Properties=species:S:1:pos:R:3 gdb_128581=T pbc="F F F"
C       -0.09060000       1.39970000       0.00980000
O       -0.01730000      -0.03170000       0.00420000
C       -1.16260000      -0.69900000       0.01160000
C       -1.38940000      -2.04190000       0.00980000
C       -2.80880000      -2.10140000       0.02090000
O       -3.50140000      -3.24230000       0.02330000
C       -4.92490000      -3.10770000       0.03500000
N       -3.39180000      -0.92000000       0.02860000
O       -2.30740000      -0.00470000       0.02250000
H        0.94370000       1.74240000       0.00250000
H       -0.61630000       1.76640000      -0.87620000
H       -0.60180000       1.76010000       0.90680000
H       -0.67800000      -2.84700000       0.00200000
H       -5.31880000      -4.12440000       0.03550000
H       -5.25610000      -2.56950000       0.92830000
H       -5.27030000      -2.56480000      -0.85000000
