19
Properties=species:S:1:pos:R:3 gdb_39820=T pbc="F F F"
C       -0.07630000       1.52660000       0.00200000
N        1.17970000       0.72930000       0.05130000
C       -0.11360000       0.05770000       0.00490000
C       -0.51390000      -1.00980000       1.02760000
C       -2.02950000      -0.98410000       1.22230000
O       -2.68530000      -0.55680000       0.03130000
C       -2.06290000      -0.96210000      -1.18200000
C       -0.54110000      -0.98970000      -1.02950000
N       -0.25310000      -2.07620000      -0.01650000
H       -0.29480000       2.08580000       0.90750000
H       -0.32570000       2.04640000      -0.91990000
H        1.61490000       0.72460000      -0.86930000
H        0.04060000      -1.09920000       1.96380000
H       -2.36530000      -1.98740000       1.52280000
H       -2.31990000      -0.26610000       1.99670000
H       -2.40270000      -1.96180000      -1.49090000
H       -2.37510000      -0.23280000      -1.93770000
H       -0.02260000      -1.06690000      -1.99000000
H        0.75230000      -2.24480000      -0.02700000
