14
Properties=species:S:1:pos:R:3 gdb_30402=T pbc="F F F"
C        0.05790000       1.44100000       0.06760000
N        0.18090000       0.00010000       0.06910000
C        0.63040000      -0.60940000      -0.94660000
N        1.04200000       0.05260000      -2.14390000
C        1.47430000      -0.64840000      -3.09440000
O        1.59360000      -2.02180000      -3.09700000
C        1.18260000      -2.60770000      -1.91900000
O        1.31810000      -3.92870000      -1.97530000
N        0.73360000      -2.01290000      -0.90260000
H        0.64180000       1.84290000       0.90460000
H        0.37800000       1.92900000      -0.85920000
H       -0.98790000       1.70320000       0.26840000
H        1.81020000      -0.23980000      -4.04280000
H        1.67700000      -4.16840000      -2.83960000
