21
Properties=species:S:1:pos:R:3 gdb_97583=T pbc="F F F"
C       -0.15070000       1.36190000       0.01660000
C        0.06830000      -0.16430000      -0.04580000
C        0.75970000      -0.54130000      -1.28110000
C        1.33730000      -0.82540000      -2.30040000
C        2.04860000      -1.23190000      -3.51160000
O        1.84250000      -2.59540000      -3.86040000
C        0.81460000      -0.66940000       1.18480000
C        0.05850000      -0.94520000       2.45900000
C        0.63960000      -2.08640000       1.65800000
H        0.80890000       1.88760000       0.02890000
H       -0.71700000       1.71200000      -0.85030000
H       -0.69930000       1.62490000       0.92570000
H       -0.92060000      -0.64580000      -0.05170000
H        1.69770000      -0.65020000      -4.37160000
H        3.12170000      -1.00850000      -3.39660000
H        2.00500000      -3.11870000      -3.06870000
H        1.80900000      -0.24460000       1.29350000
H        0.52250000      -0.68470000       3.40370000
H       -1.01950000      -0.81800000       2.44610000
H       -0.04920000      -2.72100000       1.10970000
H        1.50260000      -2.60940000       2.05450000
