18
Properties=species:S:1:pos:R:3 gdb_89647=T pbc="F F F"
O       -0.17330000       1.43590000      -0.14130000
C       -0.09330000       0.04110000      -0.12690000
C        0.57460000      -0.65770000       1.12590000
C       -0.77330000      -1.32600000       1.41290000
N       -1.75410000      -0.22650000       1.56280000
C       -1.39200000      -0.71280000       0.20260000
C       -1.01720000      -2.65170000       2.03030000
C       -1.53310000      -2.79290000       3.40070000
O       -2.38860000      -2.98600000       2.26720000
H       -0.73040000       1.66760000       0.61510000
H        0.36700000      -0.27060000      -1.06670000
H        1.35800000      -1.36360000       0.83800000
H        0.94660000       0.01500000       1.90260000
H       -2.64280000      -0.67140000       1.79750000
H       -2.15750000      -1.08930000      -0.46500000
H       -0.41840000      -3.46930000       1.62650000
H       -1.31080000      -3.69320000       3.97050000
H       -1.73510000      -1.89930000       3.98780000
