19
Properties=species:S:1:pos:R:3 gdb_46380=T pbc="F F F"
O       -0.00570000       0.12310000      -0.48980000
C        0.00150000       1.28900000      -0.21360000
C       -1.09270000       2.34840000      -0.01240000
C       -0.03130000       3.20420000       0.74350000
C        1.10940000       2.25870000       0.24290000
C        2.16120000       1.73720000       1.22160000
C        3.08100000       0.71810000       0.58620000
C        4.37910000       1.09870000       0.01350000
O        4.29890000       0.44550000       1.28150000
H       -1.40920000       2.78690000      -0.96450000
H       -1.98270000       2.02230000       0.53090000
H        0.04850000       4.25000000       0.44590000
H       -0.15590000       3.15330000       1.82790000
H        1.59660000       2.68160000      -0.64580000
H        2.76130000       2.56870000       1.60920000
H        1.66040000       1.27780000       2.08360000
H        2.58350000      -0.16330000       0.18310000
H        4.81380000       0.50830000      -0.79180000
H        4.69650000       2.14110000       0.04630000
