17
Properties=species:S:1:pos:R:3 gdb_30884=T pbc="F F F"
C       -0.41580000       1.03710000      -0.10640000
O        0.72770000       0.17990000      -0.17810000
C        0.98610000      -0.51810000       0.96140000
C        0.70920000      -1.83090000       1.25680000
O        0.05450000      -2.73260000       0.46610000
C        1.24610000      -2.11010000       2.54510000
C        1.83370000      -0.94740000       3.00130000
N        2.49000000      -0.60480000       4.20640000
N        1.67450000       0.01690000       2.03820000
H       -0.27140000       1.83370000       0.63430000
H       -0.53560000       1.48470000      -1.09560000
H       -1.31690000       0.47060000       0.15690000
H       -0.06120000      -2.32240000      -0.39850000
H        1.21680000      -3.05870000       3.05770000
H        3.48350000      -0.81790000       4.17280000
H        2.10060000      -1.12480000       4.98420000
H        1.99250000       0.96600000       2.12840000
