20
Properties=species:S:1:pos:R:3 gdb_92233=T pbc="F F F"
O        0.05330000       1.45180000       0.14420000
C       -0.00120000       0.06350000      -0.03050000
C        0.46430000      -0.84840000       1.14280000
C       -0.83160000      -1.69830000       1.00090000
C       -1.80030000      -1.77990000       2.20330000
C       -2.73440000      -0.59010000       2.05600000
N       -2.05310000       0.72320000       1.99680000
C       -2.51480000       0.06850000       0.74010000
C       -1.40450000      -0.64240000      -0.00930000
H       -0.41400000       1.61960000       0.97460000
H        0.53520000      -0.15130000      -0.95940000
H        1.41000000      -1.37740000       0.99760000
H        0.50820000      -0.29820000       2.08580000
H       -0.64300000      -2.68240000       0.56810000
H       -2.39610000      -2.69930000       2.16300000
H       -1.27080000      -1.77560000       3.16230000
H       -3.71620000      -0.62170000       2.51860000
H       -2.71600000       1.45010000       2.25450000
H       -3.32400000       0.54100000       0.19400000
H       -1.76700000      -1.00780000      -0.97340000
