21
Properties=species:S:1:pos:R:3 gdb_116333=T pbc="F F F"
C        0.65730000       1.13920000       0.23170000
O        0.65480000      -0.26190000       0.03420000
C        0.44670000      -0.64250000      -1.30660000
O        1.46450000      -0.14690000      -2.15750000
C        2.71850000      -0.84070000      -2.18290000
C        2.82760000      -1.99140000      -1.17420000
C        1.62280000      -2.90500000      -1.32220000
C        0.61240000      -3.04270000      -0.21520000
C        0.31130000      -2.15290000      -1.39260000
H        1.45890000       1.62740000      -0.33390000
H       -0.30270000       1.58490000      -0.07070000
H        0.80640000       1.31050000       1.30020000
H       -0.45970000      -0.14720000      -1.68380000
H        2.85750000      -1.23170000      -3.20060000
H        3.50510000      -0.09750000      -2.00500000
H        3.76310000      -2.53020000      -1.35480000
H        2.87590000      -1.58370000      -0.16110000
H        1.74420000      -3.74740000      -1.99640000
H        0.06040000      -3.97360000      -0.14620000
H        0.81990000      -2.56160000       0.73250000
H       -0.43320000      -2.48540000      -2.10700000
