21
Properties=species:S:1:pos:R:3 gdb_61054=T pbc="F F F"
C       -0.16020000       1.52430000      -0.11830000
C        0.00930000       0.00870000      -0.07100000
C        1.22400000      -0.52210000      -0.89330000
C        2.03930000      -0.64270000       0.42200000
C        0.70360000      -0.56310000       1.21170000
C        0.63570000       0.24930000       2.51020000
O       -0.69260000       0.40770000       2.93530000
C        1.45630000      -0.41590000       3.59350000
O        0.96820000      -0.74980000       4.64760000
H        0.78730000       2.04900000       0.05200000
H       -0.52690000       1.83280000      -1.10310000
H       -0.87590000       1.86450000       0.63580000
H       -0.94810000      -0.46680000      -0.29860000
H        1.02710000      -1.49820000      -1.34430000
H        1.61950000       0.14320000      -1.66540000
H        2.65350000      -1.53580000       0.55880000
H        2.67090000       0.23520000       0.59360000
H        0.31530000      -1.56620000       1.41840000
H        1.10110000       1.23590000       2.33030000
H       -0.72260000       0.05100000       3.83750000
H        2.52820000      -0.58750000       3.36910000
