12
Properties=species:S:1:pos:R:3 gdb_48359=T pbc="F F F"
O        0.29790000      -0.09980000      -0.52460000
C        0.63540000       0.65100000       0.34900000
C        1.51250000       1.85770000       0.15300000
C        1.18200000       3.07730000       0.94880000
O        2.23790000       2.22460000       1.32190000
C        2.25000000       2.07810000      -1.14710000
O        3.34220000       2.58120000      -1.19650000
C        1.53790000       1.71850000      -2.38210000
N        1.00970000       1.52040000      -3.39120000
H        0.34540000       0.51510000       1.41300000
H        1.47200000       4.04180000       0.53630000
H        0.30060000       3.06480000       1.58870000
