18
Properties=species:S:1:pos:R:3 gdb_70978=T pbc="F F F"
C       -0.13660000       1.48230000      -0.03030000
C        0.01180000      -0.00520000      -0.06340000
C        0.94700000      -0.84410000      -0.93980000
C        0.15440000      -2.07080000      -0.43300000
C        0.46200000      -2.05360000       1.08340000
N       -0.27300000      -0.75950000       1.22200000
C       -1.01900000      -1.07020000      -0.03120000
C        0.03300000      -3.33130000      -1.21360000
O        0.57570000      -3.53780000      -2.27150000
H        0.77330000       1.95410000       0.35690000
H       -0.32280000       1.87840000      -1.03400000
H       -0.96710000       1.77070000       0.61930000
H        0.76260000      -0.65790000      -2.00010000
H        2.02360000      -0.82530000      -0.74060000
H       -0.07560000      -2.82150000       1.64670000
H        1.51710000      -2.03840000       1.37990000
H       -2.09740000      -1.08980000      -0.12480000
H       -0.61810000      -4.10470000      -0.74380000
