20
Properties=species:S:1:pos:R:3 gdb_7821=T pbc="F F F"
C       -0.00590000       1.51830000       0.04920000
C        0.02880000      -0.00140000      -0.01220000
C        0.71090000      -0.53360000      -1.28040000
C        0.82230000      -2.05580000      -1.24390000
O        1.55690000      -2.45900000      -2.39120000
C        1.48510000      -2.49210000       0.06730000
C        0.75620000      -1.86110000       1.25750000
O        0.71230000      -0.45130000       1.15420000
H        1.01070000       1.92310000       0.02930000
H       -0.55890000       1.92530000      -0.80260000
H       -0.48940000       1.85090000       0.97150000
H       -1.00670000      -0.38850000       0.01790000
H        0.15510000      -0.22180000      -2.17110000
H        1.71970000      -0.10970000      -1.35400000
H       -0.19650000      -2.48160000      -1.27810000
H        1.65800000      -3.41600000      -2.35810000
H        1.47740000      -3.58600000       0.16270000
H        2.53070000      -2.16340000       0.05930000
H       -0.26770000      -2.26900000       1.32960000
H        1.26900000      -2.08570000       2.19720000
