16
Properties=species:S:1:pos:R:3 gdb_126042=T pbc="F F F"
C        0.05440000       1.55660000      -0.30570000
C        0.00710000       0.07820000      -0.01310000
N        1.26420000      -0.66740000      -0.05970000
C        0.56400000      -0.55550000       1.23230000
C        1.22450000       0.17510000       2.32290000
C        1.10080000       0.06220000       3.67800000
N        1.93180000       0.99870000       4.23790000
N        2.53360000       1.65170000       3.35170000
O        2.10050000       1.14390000       2.06970000
H        0.96380000       2.00780000       0.09270000
H        0.03370000       1.72270000      -1.38780000
H       -0.81290000       2.06330000       0.13020000
H       -0.87920000      -0.43010000      -0.39410000
H        1.13600000      -1.59860000      -0.44570000
H        0.02340000      -1.42520000       1.59850000
H        0.49870000      -0.60190000       4.27390000
