16
Properties=species:S:1:pos:R:3 gdb_125603=T pbc="F F F"
C       -0.04230000       1.48560000      -0.07210000
C       -0.01620000      -0.00500000       0.02850000
N       -0.01300000      -0.77970000      -1.05940000
N        0.00300000      -2.03390000      -0.60560000
C        0.02020000      -2.11060000       0.76720000
C        0.04850000      -3.31450000       1.48950000
C        0.08230000      -4.33740000       2.12850000
C        0.00370000      -0.78980000       1.20830000
N       -0.06320000      -0.33470000       2.52520000
H        0.85850000       1.94100000       0.35930000
H       -0.10070000       1.78450000      -1.12050000
H       -0.90390000       1.90690000       0.45870000
H        0.00110000      -2.80320000      -1.25260000
H        0.10170000      -5.24040000       2.68640000
H        0.20310000      -1.04010000       3.20020000
H        0.46140000       0.51540000       2.68420000
