20
Properties=species:S:1:pos:R:3 gdb_107620=T pbc="F F F"
C        0.11720000       1.56490000      -0.14470000
C        0.04270000       0.05210000      -0.02010000
O        0.74490000      -0.52910000      -1.12490000
C        1.33020000      -1.76470000      -0.74360000
C        1.52200000      -1.68120000       0.75590000
N        2.16650000      -0.42200000       1.17420000
C        0.69380000      -0.54660000       1.22450000
C       -0.03520000      -0.55880000       2.53520000
O       -0.10900000       0.77330000       3.02900000
H        1.15980000       1.88460000      -0.08140000
H       -0.29450000       1.88550000      -1.10560000
H       -0.44780000       2.03530000       0.66380000
H       -1.01240000      -0.27640000      -0.03360000
H        0.67430000      -2.61880000      -0.98270000
H        2.26600000      -1.87670000      -1.30120000
H        1.65700000      -2.58520000       1.34170000
H        2.53990000      -0.52630000       2.11570000
H       -1.04180000      -0.98170000       2.38750000
H        0.49770000      -1.21510000       3.24320000
H       -0.67540000       0.77500000       3.80650000
