20
Properties=species:S:1:pos:R:3 gdb_9720=T pbc="F F F"
C       -0.11850000       1.56850000      -0.00730000
C        0.03500000       0.03810000       0.00420000
C        0.87270000      -0.49770000      -1.18980000
C        1.33420000      -1.90580000      -0.75970000
C        1.33330000      -1.89420000       0.79860000
C        0.87120000      -0.47970000       1.20710000
C       -1.28950000      -0.59160000       0.00810000
C       -2.37780000      -1.10420000       0.01130000
H        0.86670000       2.04660000      -0.01030000
H       -0.66590000       1.90130000      -0.89410000
H       -0.66700000       1.91450000       0.87370000
H        0.31170000      -0.49400000      -2.12760000
H        1.73530000       0.16730000      -1.31810000
H        0.63830000      -2.66220000      -1.13210000
H        2.31670000      -2.14800000      -1.17350000
H        0.63700000      -2.64500000       1.18140000
H        2.31530000      -2.13010000       1.21720000
H        1.73370000       0.18710000       1.32640000
H        0.30910000      -0.46210000       2.14400000
H       -3.33910000      -1.55520000       0.01410000
