22
Properties=species:S:1:pos:R:3 gdb_100092=T pbc="F F F"
C        0.27450000       1.50760000       0.00710000
N       -0.02400000       0.04610000       0.00230000
H        0.39640000      -0.39410000      -0.81890000
H        0.41220000      -0.40270000       0.81050000
C       -1.53490000      -0.44270000       0.01430000
C       -2.18020000       0.08270000       1.29080000
C       -2.20480000       0.09590000      -1.24380000
C       -1.43730000      -1.96310000       0.00550000
C       -2.85670000      -2.75190000       0.01540000
O       -3.87230000      -2.02330000       0.02930000
O       -2.70300000      -3.97020000       0.00740000
H        1.35580000       1.65610000      -0.00270000
H       -0.17080000       1.95990000      -0.87750000
H       -0.15330000       1.95050000       0.90490000
H       -2.29920000       1.17070000       1.29630000
H       -3.16670000      -0.39120000       1.31380000
H       -1.62580000      -0.22660000       2.18500000
H       -1.66770000      -0.20390000      -2.15170000
H       -3.19150000      -0.37790000      -1.25270000
H       -2.32380000       1.18390000      -1.23570000
H       -0.90030000      -2.30890000      -0.88800000
H       -0.88270000      -2.31810000       0.88450000
