19
Properties=species:S:1:pos:R:3 gdb_72800=T pbc="F F F"
O       -0.29860000       1.42090000      -0.03830000
C       -0.06160000       0.02520000      -0.02860000
C        1.09100000      -0.41370000      -0.99390000
N        1.97980000      -0.48280000       0.20780000
C        0.87140000      -0.50200000       1.06230000
N        0.66130000      -1.02560000       2.18920000
C       -0.75280000      -1.06600000       2.59230000
C       -1.79220000      -0.47650000       1.60340000
C       -1.40220000      -0.67200000       0.12010000
H        0.52930000       1.86780000       0.17070000
H        0.92450000      -1.38480000      -1.47330000
H        1.39310000       0.32900000      -1.73670000
H        2.71480000      -1.17420000       0.29990000
H       -0.97880000      -2.12600000       2.77370000
H       -0.85730000      -0.57390000       3.56670000
H       -2.76820000      -0.92720000       1.80920000
H       -1.89260000       0.60010000       1.77140000
H       -2.15300000      -0.23550000      -0.54550000
H       -1.30350000      -1.73540000      -0.12550000
