14
Properties=species:S:1:pos:R:3 gdb_20495=T pbc="F F F"
C       -0.09160000       1.46310000       0.01060000
C       -0.00160000       0.01220000       0.00260000
C        0.08140000      -1.19180000      -0.00410000
C        0.16200000      -2.59930000      -0.01180000
C        1.24120000      -3.47450000      -0.02280000
C        0.66580000      -4.75770000      -0.02590000
N       -0.66610000      -4.70780000      -0.01760000
N       -0.94760000      -3.39740000      -0.00920000
H        0.90570000       1.91620000       0.00340000
H       -0.63160000       1.83460000      -0.86760000
H       -0.61490000       1.82590000       0.90230000
H        2.28360000      -3.20310000      -0.02770000
H        1.16390000      -5.71590000      -0.03380000
H       -1.90650000      -3.09230000      -0.00190000
