14
Properties=species:S:1:pos:R:3 gdb_42291=T pbc="F F F"
N       -0.11800000       1.23100000       0.48160000
C       -0.05540000       0.03170000       0.12370000
C       -1.07490000      -0.94180000      -0.45480000
C        0.06010000      -2.00780000      -0.48240000
N        0.95780000      -0.98340000       0.07930000
C        2.27490000      -1.10330000       0.39690000
O        2.92510000      -2.11520000       0.25610000
C        2.87200000       0.12990000       0.94300000
N        3.36670000       1.08140000       1.37360000
H        0.76130000       1.60650000       0.83560000
H       -1.90690000      -1.16300000       0.21500000
H       -1.46390000      -0.64880000      -1.43080000
H       -0.07000000      -2.86550000       0.18060000
H        0.37440000      -2.34970000      -1.47050000
