15
Properties=species:S:1:pos:R:3 gdb_71189=T pbc="F F F"
O       -0.11560000       1.44760000       0.05320000
C       -0.04930000       0.07640000       0.00570000
C        0.45560000      -0.74530000      -1.19490000
N       -0.48190000      -1.84770000      -0.79020000
C       -0.46580000      -1.85490000       0.71220000
C       -1.30230000      -0.87590000      -0.01790000
C        0.47220000      -0.76330000       1.24010000
C        1.90100000      -1.00250000       1.38010000
N        3.04330000      -1.16440000       1.46380000
H        0.77200000       1.81300000      -0.04560000
H        0.11150000      -0.33560000      -2.14710000
H        1.51450000      -1.01790000      -1.24840000
H       -0.73820000      -2.78020000       1.20020000
H       -2.36730000      -0.72700000      -0.12470000
H        0.06800000      -0.33440000       2.16040000
