17
Properties=species:S:1:pos:R:3 gdb_46729=T pbc="F F F"
N       -0.02620000       1.21230000      -0.36800000
C        0.01060000       0.00830000       0.00610000
O        1.14490000      -0.63610000       0.43860000
C        0.85320000      -1.93060000       1.00730000
C       -0.59570000      -2.25470000       0.64200000
C       -1.14600000      -0.95710000       0.02130000
C       -1.37880000      -1.78280000      -1.25850000
C       -0.15000000      -2.43940000      -1.73330000
N       -0.87980000      -3.06550000      -0.60860000
H        0.89670000       1.64320000      -0.28860000
H        1.56900000      -2.65250000       0.60360000
H        0.99120000      -1.86770000       2.09240000
H       -1.15510000      -2.68610000       1.47130000
H       -2.04740000      -0.52680000       0.45180000
H       -2.29530000      -1.75570000      -1.83730000
H       -0.22940000      -3.03080000      -2.64000000
H        0.82450000      -1.98520000      -1.58000000
