18
Properties=species:S:1:pos:R:3 gdb_7599=T pbc="F F F"
C        0.12190000       1.37480000      -0.36640000
C        0.04760000      -0.05490000       0.18350000
O        0.53420000      -0.10980000       1.51620000
C       -1.36700000      -0.61270000       0.14320000
O       -2.21310000      -0.02570000       1.10840000
C       -1.99680000      -1.07650000      -1.15190000
C       -1.61400000      -2.06990000      -0.06720000
O       -0.50350000      -2.89370000      -0.24580000
H        1.14170000       1.75450000      -0.26660000
H       -0.16700000       1.41580000      -1.42190000
H       -0.53620000       2.04620000       0.19850000
H        0.69330000      -0.71070000      -0.40770000
H       -0.21140000       0.13700000       2.07830000
H       -2.50400000       0.82770000       0.76710000
H       -3.05080000      -0.87320000      -1.30850000
H       -1.37790000      -1.05600000      -2.04350000
H       -2.42970000      -2.49340000       0.51770000
H       -0.73110000      -3.56130000      -0.90120000
