22
Properties=species:S:1:pos:R:3 gdb_88778=T pbc="F F F"
C        2.95410000      -0.48820000       0.23050000
N        1.64160000      -1.10600000       0.34110000
C        1.46070000      -2.13580000       1.35750000
C        0.77990000      -0.81400000       1.48900000
C        1.13330000       0.15390000       2.59700000
C        0.87450000       1.64950000       2.25060000
C        0.41240000       2.23720000       3.56260000
C        0.11460000       1.29450000       4.45460000
C        0.32200000      -0.09530000       3.90210000
H        3.51250000      -0.41290000       1.17700000
H        3.55890000      -1.08000000      -0.46440000
H        2.84930000       0.51840000      -0.18750000
H        0.91500000      -3.02540000       1.05210000
H        2.29130000      -2.32740000       2.03800000
H       -0.27380000      -0.76600000       1.20790000
H        2.19250000       0.04970000       2.85120000
H        1.76690000       2.14030000       1.84590000
H        0.09430000       1.75320000       1.48170000
H        0.30590000       3.30510000       3.71930000
H       -0.27330000       1.47420000       5.45140000
H       -0.64550000      -0.57460000       3.68880000
H        0.84730000      -0.76510000       4.59200000
