17
Properties=species:S:1:pos:R:3 gdb_117444=T pbc="F F F"
O       -0.17370000       1.42980000      -0.06310000
C       -0.00640000       0.02370000      -0.15380000
C       -1.37910000      -0.59790000       0.06900000
C       -1.34650000      -2.11320000      -0.03790000
O       -0.42130000      -2.73120000      -0.53090000
N       -2.45630000      -2.74410000       0.47180000
C       -2.62600000      -4.17610000       0.34340000
C       -3.78950000      -4.53560000      -0.47820000
N       -4.72240000      -4.80680000      -1.10320000
H        0.67530000       1.84350000      -0.24310000
H        0.37710000      -0.28530000      -1.13470000
H        0.69800000      -0.35210000       0.60290000
H       -1.77300000      -0.29040000       1.04450000
H       -2.07620000      -0.20730000      -0.68340000
H       -3.22430000      -2.19450000       0.82190000
H       -1.71070000      -4.55250000      -0.12420000
H       -2.72810000      -4.65860000       1.32280000
