16
Properties=species:S:1:pos:R:3 gdb_86132=T pbc="F F F"
C       -0.05620000       1.41130000       0.08910000
N       -0.00680000      -0.03060000      -0.00000000
C       -1.20580000      -0.83100000      -0.23880000
C       -0.74290000      -2.27270000       0.04580000
O       -1.37270000      -3.24140000      -0.74030000
C        0.75630000      -2.19010000      -0.19450000
O        1.44560000      -3.10490000      -0.55890000
C        1.17330000      -0.72550000       0.00310000
O        2.29290000      -0.27940000       0.11560000
H        0.95910000       1.76860000       0.26790000
H       -0.43700000       1.85220000      -0.84020000
H       -0.70730000       1.72510000       0.91330000
H       -2.01870000      -0.50300000       0.41660000
H       -1.54900000      -0.75510000      -1.27840000
H       -0.87980000      -2.47350000       1.12390000
H       -0.68920000      -3.88820000      -0.96920000
