15
Properties=species:S:1:pos:R:3 gdb_42279=T pbc="F F F"
O       -0.05630000      -0.07050000      -0.01030000
C       -0.10930000       1.14130000       0.03230000
C        1.10750000       1.97950000      -0.05740000
N        2.07070000       2.61200000      -0.14520000
N       -1.22940000       1.87410000       0.20380000
C       -1.55720000       3.31050000       0.06610000
C       -3.03750000       2.90620000      -0.04160000
C       -3.23360000       1.90100000      -1.14860000
C       -2.61750000       1.45110000       0.14590000
H       -1.31830000       3.87100000       0.97410000
H       -1.10780000       3.80270000      -0.80190000
H       -3.85280000       3.43860000       0.42550000
H       -4.26060000       1.58420000      -1.29860000
H       -2.63110000       1.93900000      -2.05170000
H       -2.99060000       0.66070000       0.78260000
