15
Properties=species:S:1:pos:R:3 gdb_132525=T pbc="F F F"
C       -0.06960000       1.52760000       0.04670000
C       -0.01480000       0.02590000      -0.02660000
C       -0.05840000      -0.70000000      -1.21940000
C       -0.00380000      -2.08670000      -1.22060000
C        0.09620000      -2.72410000       0.01610000
O        0.15230000      -4.07050000       0.06540000
N        0.14040000      -2.06760000       1.17340000
C        0.08560000      -0.75440000       1.12320000
F        0.13230000      -0.13120000       2.30110000
H        0.82430000       1.93940000       0.52690000
H       -0.14680000       1.96070000      -0.95380000
H       -0.92920000       1.87030000       0.63230000
H       -0.13650000      -0.16370000      -2.16040000
H       -0.03600000      -2.66910000      -2.13190000
H        0.21820000      -4.30580000       1.00060000
