20
Properties=species:S:1:pos:R:3 gdb_68297=T pbc="F F F"
O       -0.37690000       1.34860000       0.06340000
C       -0.06180000       0.00060000       0.03180000
C        0.61580000      -0.85670000      -1.06760000
N        0.23210000      -1.89520000      -0.00320000
C        0.74910000      -0.87460000       1.02130000
C       -1.10130000      -1.12690000       0.08850000
C       -2.09330000      -1.35560000       1.24660000
C       -3.25600000      -1.20520000       0.22530000
C       -2.23280000      -1.33690000      -0.93790000
H        0.43750000       1.86140000       0.01570000
H        0.09990000      -0.98850000      -2.02030000
H        1.69670000      -0.76210000      -1.20440000
H        1.83880000      -0.78120000       1.02120000
H        0.35840000      -1.02320000       2.02940000
H       -2.01120000      -2.37110000       1.64550000
H       -2.06630000      -0.64600000       2.07690000
H       -4.04670000      -1.95630000       0.26930000
H       -3.71310000      -0.21380000       0.26300000
H       -2.31070000      -0.61310000      -1.75270000
H       -2.20310000      -2.34540000      -1.36130000
