19
Properties=species:S:1:pos:R:3 gdb_2330=T pbc="F F F"
C        0.05100000       1.56260000      -0.18260000
C        0.04060000       0.06110000       0.00720000
C        1.31820000      -0.74300000      -0.03320000
C        0.54450000      -0.61810000       1.26200000
C        1.11400000       0.13860000       2.44320000
C        2.03820000      -0.72880000       3.29160000
O        2.50610000       0.06090000       4.37540000
H        0.94820000       2.02400000       0.23910000
H        0.02480000       1.81660000      -1.24810000
H       -0.81790000       2.03320000       0.29150000
H       -0.82130000      -0.42350000      -0.44560000
H        1.33110000      -1.69400000      -0.55480000
H        2.24860000      -0.18650000      -0.10700000
H       -0.01810000      -1.50430000       1.54990000
H        1.68050000       1.01490000       2.11180000
H        0.30720000       0.51300000       3.08590000
H        1.48880000      -1.61440000       3.65190000
H        2.87220000      -1.09470000       2.67160000
H        3.09470000      -0.48030000       4.90920000
