20
Properties=species:S:1:pos:R:3 gdb_81460=T pbc="F F F"
C       -0.09930000       1.64270000      -0.01990000
C        0.04960000       0.12430000       0.02350000
C        0.91660000      -0.69940000      -0.95260000
C        2.35500000      -0.17140000      -1.09840000
N        3.08570000      -0.10730000       0.18460000
C        2.84050000       0.97790000       1.13440000
C        2.25800000      -0.37130000       1.37140000
C        0.82370000      -0.74300000       1.06130000
O        0.92720000      -1.77970000       0.02400000
H        0.76970000       2.15740000      -0.43480000
H       -0.95470000       1.90970000      -0.64890000
H       -0.28960000       2.05530000       0.97660000
H       -0.94990000      -0.31930000      -0.00340000
H        0.49910000      -1.00920000      -1.91550000
H        2.90580000      -0.86900000      -1.73930000
H        2.36470000       0.80370000      -1.60100000
H        3.71940000       1.27720000       1.70090000
H        2.18810000       1.79940000       0.86930000
H        2.72600000      -1.02460000       2.10670000
H        0.28130000      -1.09520000       1.94280000
