20
Properties=species:S:1:pos:R:3 gdb_95668=T pbc="F F F"
C        0.05670000       1.29660000      -0.79480000
N        0.06180000       0.12230000       0.06180000
C       -1.23170000      -0.19900000       0.65300000
C       -1.40500000      -1.65210000       1.09310000
C       -0.71040000      -2.00990000       2.40770000
C        0.81480000      -2.09710000       2.37330000
O        1.37510000      -2.86920000       3.13900000
C        1.59390000      -1.27290000       1.46020000
C        1.25130000      -0.35260000       0.51800000
H        1.03660000       1.42690000      -1.25730000
H       -0.68730000       1.18120000      -1.59080000
H       -0.18510000       2.21310000      -0.23600000
H       -1.43280000       0.47130000       1.50610000
H       -1.98430000       0.03450000      -0.10820000
H       -2.48150000      -1.81630000       1.21450000
H       -1.07820000      -2.31910000       0.28690000
H       -0.98160000      -1.27350000       3.17710000
H       -1.05990000      -2.97750000       2.77790000
H        2.66020000      -1.44730000       1.55870000
H        2.08540000       0.10010000      -0.01310000
