19
Properties=species:S:1:pos:R:3 gdb_91982=T pbc="F F F"
C       -0.00030000       1.48260000      -0.09190000
N        0.16670000       0.04440000      -0.01530000
C        0.70100000      -0.61120000      -1.21420000
C        1.10200000      -2.00230000      -0.74000000
C        2.44240000      -2.14670000      -0.07210000
C        1.21010000      -1.93240000       0.76740000
C        0.84460000      -0.49670000       1.16480000
C        2.03510000       0.29200000       1.57550000
N        2.94480000       0.94680000       1.86100000
H        0.94800000       2.03450000      -0.20790000
H       -0.64290000       1.72100000      -0.94520000
H       -0.49620000       1.84790000       0.81320000
H       -0.07680000      -0.64780000      -1.98520000
H        1.56140000      -0.06820000      -1.64470000
H        0.65370000      -2.86310000      -1.22070000
H        2.88960000      -3.13410000      -0.04200000
H        3.15870000      -1.33500000      -0.15660000
H        0.85310000      -2.72890000       1.40730000
H        0.15680000      -0.49240000       2.01960000
