18
Properties=species:S:1:pos:R:3 gdb_111087=T pbc="F F F"
O       -0.15210000       1.41750000      -0.17280000
C       -0.00670000       0.04330000       0.16480000
C       -1.37600000      -0.59200000       0.01270000
C       -1.99570000      -0.72240000      -1.41920000
C       -1.12990000      -1.99200000      -1.61970000
C       -1.45150000      -2.16790000      -0.09860000
C       -2.98540000      -2.29290000      -0.14330000
O       -3.73740000      -2.95830000       0.52180000
N       -3.30150000      -1.36530000      -1.14120000
H        0.68620000       1.85940000      -0.00900000
H        0.74520000      -0.44240000      -0.47320000
H        0.32670000      -0.07920000       1.20750000
H       -2.05230000      -0.14080000       0.74620000
H       -2.04390000       0.09810000      -2.13130000
H       -1.51750000      -2.74260000      -2.31070000
H       -0.07870000      -1.79010000      -1.82120000
H       -0.92790000      -2.85060000       0.56650000
H       -4.14420000      -0.81700000      -1.04380000
