20
Properties=species:S:1:pos:R:3 gdb_102918=T pbc="F F F"
C        0.15600000       1.56130000       0.09820000
C       -0.03910000       0.05130000      -0.06730000
N        0.63600000      -0.50440000      -1.23270000
C        2.07850000      -0.70860000      -1.20720000
C        2.45660000      -2.15920000      -0.82560000
C        3.89830000      -2.33820000      -0.73110000
C        5.09340000      -2.44390000      -0.65840000
C       -0.05520000      -0.88340000      -2.34360000
O        0.44160000      -1.37730000      -3.33570000
H        1.21310000       1.82230000       0.20570000
H       -0.23890000       2.09930000      -0.76870000
H       -0.36730000       1.91390000       0.99250000
H        0.30930000      -0.47480000       0.83050000
H       -1.10620000      -0.17470000      -0.16410000
H        2.47600000      -0.48940000      -2.20030000
H        2.52300000      -0.00810000      -0.49630000
H        1.98430000      -2.42270000       0.12940000
H        2.03900000      -2.82840000      -1.58550000
H        6.14730000      -2.55740000      -0.59730000
H       -1.14190000      -0.68870000      -2.24570000
