18
Properties=species:S:1:pos:R:3 gdb_24434=T pbc="F F F"
C       -0.03090000       1.42320000       0.08840000
C        1.42130000       1.95530000       0.00320000
N        2.28970000       1.45520000       1.07190000
C        1.99480000       0.10810000       1.39930000
C        0.93070000      -0.57500000       0.85300000
N        0.96340000      -1.86530000       1.32810000
C        2.03800000      -2.00690000       2.17790000
C        2.69790000      -0.80170000       2.24360000
N       -0.09560000      -0.04560000       0.04630000
H       -0.48390000       1.75650000       1.03030000
H       -0.63330000       1.82450000      -0.73180000
H        1.84480000       1.64460000      -0.96220000
H        1.42780000       3.04940000       0.02320000
H        2.25130000       2.05580000       1.88800000
H        0.27170000      -2.56540000       1.12800000
H        2.25100000      -2.95320000       2.64720000
H        3.59040000      -0.59540000       2.81420000
H       -0.02810000      -0.36900000      -0.91560000
