17
Properties=species:S:1:pos:R:3 gdb_97757=T pbc="F F F"
C       -0.78430000       1.48120000      -0.22710000
C        0.32850000       0.49740000       0.17840000
C        1.05490000      -0.05010000      -0.96130000
C        1.63620000      -0.49310000      -1.91900000
C        2.35010000      -1.02060000      -3.05820000
C        3.64100000      -1.83670000      -2.79740000
C        2.85170000      -2.98260000      -3.42740000
O        3.02590000      -4.12390000      -3.70510000
O        1.71970000      -2.23480000      -3.63100000
H       -0.37080000       2.33270000      -0.77400000
H       -1.52010000       0.99120000      -0.86980000
H       -1.29810000       1.85830000       0.66180000
H        1.03920000       0.99720000       0.84900000
H       -0.10080000      -0.32960000       0.75780000
H        2.44930000      -0.27620000      -3.85270000
H        4.52510000      -1.53000000      -3.35760000
H        3.89330000      -1.98740000      -1.74770000
