18
Properties=species:S:1:pos:R:3 gdb_69606=T pbc="F F F"
C       -0.00520000       1.51500000       0.02950000
C        0.00850000       0.01500000       0.00980000
C       -0.90240000      -0.85360000       0.83650000
C        0.58860000      -0.96900000       1.01310000
C        1.30340000      -1.74610000      -0.13400000
C        0.37620000      -2.22130000      -1.23540000
C        0.69410000      -0.76370000      -1.15230000
C        2.65490000      -2.17550000      -0.03910000
N        3.75800000      -2.51800000       0.05520000
H        0.98490000       1.92580000      -0.19900000
H       -0.71040000       1.91630000      -0.70860000
H       -0.30390000       1.88990000       1.01320000
H       -1.38850000      -0.32070000       1.64900000
H       -1.51590000      -1.64790000       0.42660000
H        1.08850000      -0.76670000       1.95110000
H        0.88780000      -2.74620000      -2.03580000
H       -0.60030000      -2.62790000      -1.00240000
H        1.23650000      -0.25380000      -1.93800000
