23
Properties=species:S:1:pos:R:3 gdb_62559=T pbc="F F F"
C       -0.01670000       1.54260000       0.02740000
C        0.09530000       0.03210000       0.05670000
O       -1.08350000      -0.58830000      -0.41660000
C        1.35760000      -0.76310000      -0.23980000
C        1.42620000      -1.80670000      -1.31840000
C        2.58500000      -0.04170000       0.33220000
C        1.92670000      -0.05340000       1.74750000
C        0.70410000      -0.78170000       1.17300000
C       -0.05120000      -1.84880000       1.91480000
H        0.86430000       2.04310000       0.43280000
H       -0.14860000       1.89770000      -1.00310000
H       -0.89000000       1.86390000       0.60430000
H       -1.17760000      -0.36360000      -1.34900000
H        1.76750000      -1.37240000      -2.26780000
H        2.13180000      -2.60400000      -1.05740000
H        0.44850000      -2.26480000      -1.48810000
H        3.48190000      -0.66610000       0.29480000
H        2.83430000       0.93280000      -0.10170000
H        2.48040000      -0.68010000       2.45140000
H        1.74400000       0.91410000       2.22690000
H       -0.54210000      -1.43010000       2.80270000
H       -0.82420000      -2.29620000       1.28760000
H        0.62270000      -2.64230000       2.25860000
