17
Properties=species:S:1:pos:R:3 gdb_31590=T pbc="F F F"
N        0.17030000       1.42050000      -0.04660000
C        0.05250000       0.02750000      -0.09630000
C       -1.03040000      -0.80010000       0.08000000
N       -2.35790000      -0.34080000       0.27740000
N       -0.62910000      -2.12290000       0.06700000
C        0.66750000      -2.09990000      -0.13230000
C        1.58440000      -3.27040000      -0.27900000
O        2.83090000      -3.06300000       0.38390000
N        1.13400000      -0.81080000      -0.23520000
H        0.51580000       1.81740000      -0.91570000
H       -0.75210000       1.80590000       0.13170000
H       -2.71500000      -0.65750000       1.17530000
H       -2.97890000      -0.73720000      -0.42310000
H        1.05710000      -4.16630000       0.07200000
H        1.85330000      -3.43640000      -1.32950000
H        2.64260000      -2.97200000       1.32450000
H        2.10400000      -0.54550000      -0.28270000
