18
Properties=species:S:1:pos:R:3 gdb_108992=T pbc="F F F"
C       -0.28310000       1.46210000      -0.03150000
C        0.14620000      -0.01580000      -0.03160000
C        0.84180000      -0.42970000      -1.28700000
C        2.07930000      -0.93520000      -1.49480000
C        2.07920000      -1.30070000      -2.96880000
N        1.31150000      -0.20020000      -3.62990000
C        0.21090000      -0.52960000      -2.67450000
C        0.66530000      -2.02870000      -2.96370000
O        0.19690000      -3.10600000      -3.08610000
H        0.58530000       2.12120000      -0.12720000
H       -0.96150000       1.67990000      -0.86240000
H       -0.80100000       1.71420000       0.89860000
H        0.79860000      -0.21280000       0.82640000
H       -0.74430000      -0.64450000       0.10730000
H        2.84250000      -1.17910000      -0.76850000
H        2.97240000      -1.68510000      -3.45560000
H        1.72370000       0.70880000      -3.40120000
H       -0.78710000      -0.14070000      -2.86680000
