17
Properties=species:S:1:pos:R:3 gdb_24123=T pbc="F F F"
C       -0.02250000       1.52840000       0.12250000
C       -0.06820000       0.02600000       0.33800000
C       -1.23630000      -0.77450000      -0.04420000
O       -0.04500000      -0.78720000      -0.83420000
C        1.35860000       2.04590000      -0.09620000
C        2.02550000       2.52510000      -1.18040000
C        3.35340000       2.83920000      -0.73860000
C        3.39300000       2.52470000       0.58040000
O        2.18790000       2.04140000       0.99020000
H       -0.63610000       1.77880000      -0.74750000
H       -0.46760000       2.02130000       0.99710000
H        0.56490000      -0.34110000       1.14670000
H       -1.46000000      -1.69950000       0.48530000
H       -2.09520000      -0.28490000      -0.50270000
H        1.62270000       2.63670000      -2.17480000
H        4.16170000       3.24390000      -1.32710000
H        4.15540000       2.58280000       1.33940000
