18
Properties=species:S:1:pos:R:3 gdb_67137=T pbc="F F F"
C       -0.14510000       1.53140000      -0.05420000
C       -0.01820000       0.04890000      -0.05450000
C       -0.00640000      -1.06620000      -1.03750000
C        1.28480000      -1.58640000      -0.41950000
N        0.96370000      -0.76410000       0.82160000
C       -0.25510000      -1.48370000       1.29960000
O       -0.45690000      -2.02250000       2.34260000
C       -1.05730000      -1.07070000       0.11640000
C       -2.53970000      -1.08080000      -0.09990000
H        0.76610000       2.00590000      -0.43250000
H       -0.98070000       1.84530000      -0.68770000
H       -0.32460000       1.90330000       0.95970000
H       -0.34510000      -1.06820000      -2.06810000
H        1.39780000      -2.65880000      -0.22680000
H        2.18310000      -1.19600000      -0.90410000
H       -3.06600000      -0.72700000       0.79170000
H       -2.82240000      -0.43670000      -0.93900000
H       -2.89920000      -2.09080000      -0.32230000
