20
Properties=species:S:1:pos:R:3 gdb_84871=T pbc="F F F"
C       -1.12120000       0.89740000       0.11290000
C        0.21540000       0.15080000       0.07160000
C        0.79410000       0.13780000      -1.33160000
C        1.95450000      -0.44630000      -1.63410000
C        2.55910000      -0.45220000      -3.00940000
C        2.72950000      -1.11670000      -0.52280000
O        3.22500000      -0.18780000       0.45990000
C        2.34550000       0.57820000       1.15480000
N        1.10000000       0.75880000       1.07590000
H       -0.97930000       1.94520000      -0.17090000
H       -1.84140000       0.44400000      -0.57640000
H       -1.53570000       0.87490000       1.12320000
H        0.01710000      -0.88820000       0.38060000
H        0.22860000       0.65300000      -2.10600000
H        3.53770000       0.04490000      -3.01300000
H        2.72820000      -1.47650000      -3.36640000
H        1.91520000       0.05590000      -3.73190000
H        2.12170000      -1.87630000      -0.01470000
H        3.62860000      -1.60790000      -0.90120000
H        2.90970000       1.11920000       1.91590000
