19
Properties=species:S:1:pos:R:3 gdb_38255=T pbc="F F F"
C       -0.05360000       1.64630000       0.10810000
C        1.44410000       1.32540000       0.00560000
C        1.73150000       0.69940000       1.40540000
C        0.58490000      -0.33580000       1.35150000
O       -0.49660000      -0.30630000       2.26300000
C       -1.62550000      -0.83100000       1.52400000
C       -1.31040000      -0.73820000      -0.01740000
C       -0.06560000       0.10590000       0.04070000
O        1.08810000       0.16800000      -0.84980000
H       -0.43610000       2.14390000       1.00150000
H       -0.45120000       2.08200000      -0.80940000
H        2.18160000       1.98670000      -0.44770000
H        2.71410000       0.22960000       1.47300000
H        1.62860000       1.43090000       2.21050000
H        0.98360000      -1.35660000       1.25560000
H       -1.80820000      -1.87200000       1.81830000
H       -2.50130000      -0.23850000       1.80280000
H       -1.09420000      -1.72710000      -0.43210000
H       -2.13420000      -0.29810000      -0.58290000
