15
Properties=species:S:1:pos:R:3 gdb_3005=T pbc="F F F"
O        0.00940000       1.40140000       0.00250000
C       -0.03740000       0.00100000      -0.01730000
C       -1.48340000      -0.47720000       0.05080000
O       -2.41940000       0.28600000       0.11150000
C       -1.65260000      -1.95990000       0.03690000
C       -2.81480000      -2.53360000       0.83440000
C       -2.89220000      -2.51070000      -0.65300000
H        0.93130000       1.66970000      -0.04760000
H        0.40730000      -0.43090000      -0.93210000
H        0.49950000      -0.45890000       0.83220000
H       -0.74500000      -2.55190000      -0.01940000
H       -2.64990000      -3.47870000       1.33870000
H       -3.41040000      -1.80780000       1.37600000
H       -3.53950000      -1.76940000      -1.10730000
H       -2.78210000      -3.43950000      -1.20070000
