15
Properties=species:S:1:pos:R:3 gdb_29669=T pbc="F F F"
C       -0.02780000       1.45770000      -0.00350000
N       -0.00260000       0.00510000       0.02560000
C       -0.01830000      -0.75400000      -1.13370000
O       -0.05320000      -0.38550000      -2.28810000
N        0.01440000      -2.07920000      -0.66480000
C        0.04870000      -2.11620000       0.70060000
C        0.03850000      -0.82640000       1.14940000
C        0.06550000      -0.40280000       2.53130000
O        0.05630000       0.74740000       2.92290000
H        0.86180000       1.87190000       0.47500000
H       -0.05680000       1.74670000      -1.05510000
H       -0.90820000       1.84210000       0.51530000
H        0.01120000      -2.86210000      -1.29570000
H        0.07750000      -3.03400000       1.26410000
H        0.09680000      -1.25880000       3.24070000
