20
Properties=species:S:1:pos:R:3 gdb_71959=T pbc="F F F"
C        0.01160000       1.55220000      -0.06810000
C       -0.00690000       0.04930000       0.06060000
C       -1.26120000      -0.73220000       0.48330000
N       -0.38370000      -1.81080000       1.06300000
C        0.09460000      -2.66020000      -0.07060000
C        1.15730000      -1.77180000      -0.73890000
C        1.96590000      -1.33320000       0.49250000
C        0.73480000      -0.76070000       1.17160000
O        0.51970000      -0.55020000      -1.14690000
H        1.03360000       1.92030000      -0.20020000
H       -0.57300000       1.86610000      -0.93910000
H       -0.41830000       2.02180000       0.82190000
H       -1.83120000      -0.24610000       1.28270000
H       -1.93960000      -1.05530000      -0.31160000
H        0.53290000      -3.58960000       0.31070000
H       -0.73570000      -2.91730000      -0.73270000
H        1.69500000      -2.18920000      -1.59070000
H        2.42820000      -2.15870000       1.03920000
H        2.71460000      -0.57340000       0.25640000
H        0.81730000      -0.32550000       2.16630000
