17
Properties=species:S:1:pos:R:3 gdb_7292=T pbc="F F F"
C       -0.07210000       1.66370000       0.20340000
C       -0.06040000       0.13710000       0.01340000
C        0.77950000      -0.57500000       1.09990000
C        2.17960000      -0.17290000       1.09890000
C        3.33410000       0.16290000       1.07690000
C       -1.49810000      -0.38630000       0.08510000
N       -2.10720000      -0.57910000      -1.12000000
O       -2.06370000      -0.59300000       1.14250000
H        0.94880000       2.05350000       0.20190000
H       -0.63330000       2.15730000      -0.59580000
H       -0.54260000       1.92070000       1.15730000
H        0.37010000      -0.09600000      -0.96780000
H        0.31810000      -0.37400000       2.07280000
H        0.71270000      -1.66030000       0.95550000
H        4.35580000       0.45160000       1.07490000
H       -1.64970000      -0.38590000      -1.99290000
H       -3.07520000      -0.85690000      -1.12840000
