17
Properties=species:S:1:pos:R:3 gdb_77741=T pbc="F F F"
O        0.14800000       1.37510000       0.56190000
C        0.09380000       0.04370000       0.13870000
C        0.29960000      -1.07520000       1.18030000
C       -0.05220000      -0.77280000       2.44610000
C       -1.49170000      -1.20450000       2.70760000
C       -1.93820000      -1.40750000       1.24840000
C       -0.76950000      -1.94610000       0.49780000
C       -1.30860000      -0.64550000      -0.00390000
O       -2.08120000      -0.49440000      -1.14390000
H        0.88790000       1.80950000       0.12950000
H        0.60860000      -0.09210000      -0.82270000
H        0.36370000       0.08150000       2.96990000
H       -1.65130000      -2.12050000       3.29520000
H       -2.01080000      -0.39400000       3.23400000
H       -2.93960000      -1.76560000       1.01710000
H       -0.63510000      -2.88930000      -0.01420000
H       -2.60490000       0.30770000      -1.04010000
