20
Properties=species:S:1:pos:R:3 gdb_120838=T pbc="F F F"
O        0.05950000       1.35510000       0.35810000
C       -0.02160000      -0.06130000       0.35880000
C       -1.31570000      -0.45080000      -0.34850000
C       -1.48240000      -1.94970000      -0.42790000
N       -1.94760000      -2.64490000       0.78630000
C       -2.78960000      -2.66550000      -0.42380000
C       -4.14430000      -1.98910000      -0.32810000
C       -5.11720000      -2.83980000       0.46330000
O       -6.20140000      -3.18990000       0.07300000
H        0.84440000       1.61270000       0.85010000
H        0.84030000      -0.51030000      -0.16350000
H       -0.03510000      -0.46700000       1.38160000
H       -2.14920000       0.00450000       0.19320000
H       -1.31050000      -0.02380000      -1.35870000
H       -0.69880000      -2.44900000      -0.99900000
H       -1.46750000      -3.53190000       0.90710000
H       -2.80950000      -3.59590000      -0.99050000
H       -4.04030000      -1.03520000       0.20170000
H       -4.56590000      -1.79630000      -1.31900000
H       -4.74100000      -3.13370000       1.46870000
