21
Properties=species:S:1:pos:R:3 gdb_89010=T pbc="F F F"
C        0.20490000       1.51540000      -0.07550000
C       -0.12570000       0.03720000       0.05550000
O       -0.49130000      -0.44200000       1.10440000
C        0.03020000      -0.80100000      -1.20710000
C       -0.39390000      -2.26120000      -1.03900000
C       -0.19930000      -3.06680000      -2.30620000
C        1.16830000      -3.63270000      -2.65270000
C        0.03660000      -4.54780000      -2.25130000
O        0.04360000      -5.14210000      -0.98570000
H        1.21530000       1.65350000      -0.47600000
H       -0.48350000       1.99420000      -0.78150000
H        0.12280000       2.00130000       0.89740000
H       -0.53530000      -0.31220000      -2.01370000
H        1.08100000      -0.73660000      -1.52500000
H        0.16630000      -2.71610000      -0.21900000
H       -1.44520000      -2.29790000      -0.73180000
H       -0.79350000      -2.72870000      -3.15240000
H        1.50630000      -3.62890000      -3.68340000
H        1.95240000      -3.49100000      -1.91490000
H       -0.42020000      -5.15490000      -3.03320000
H        0.72850000      -5.81850000      -0.97870000
