22
Properties=species:S:1:pos:R:3 gdb_80404=T pbc="F F F"
C        0.13870000       1.76180000      -0.11670000
C        0.00930000       0.25710000      -0.06030000
C        0.46180000      -0.67630000      -1.12810000
C        1.40620000      -0.19170000      -2.21700000
C        2.73940000       0.18810000      -1.51590000
C        3.93140000      -0.60410000      -2.06100000
O        2.95480000       1.58580000      -1.76020000
C        2.48470000      -0.11770000      -0.00150000
N        1.13540000      -0.66930000       0.19190000
H        0.98120000       2.10310000      -0.71990000
H       -0.77830000       2.19100000      -0.53560000
H        0.25480000       2.17130000       0.89400000
H       -0.87210000      -0.06510000       0.49420000
H       -0.14000000      -1.55480000      -1.34930000
H        1.56560000      -0.98540000      -2.95200000
H        1.02910000       0.67970000      -2.75920000
H        4.07800000      -0.38850000      -3.12340000
H        4.85300000      -0.34050000      -1.52700000
H        3.77630000      -1.68080000      -1.93890000
H        3.77470000       1.83940000      -1.32280000
H        3.19700000      -0.86650000       0.36180000
H        2.63120000       0.78950000       0.59500000
