19
Properties=species:S:1:pos:R:3 gdb_60893=T pbc="F F F"
O       -0.00590000       1.46400000       0.14620000
C        0.04280000       0.06360000       0.07500000
C        0.69450000      -0.37680000      -1.22040000
O        1.11090000       0.42150000      -2.02530000
C        0.77750000      -0.51430000       1.27300000
C        2.26260000      -0.26130000       1.67790000
C        1.67050000      -1.18270000       2.78230000
C        0.40640000      -0.27540000       2.76620000
C        1.00570000      -2.01300000       1.64620000
H        0.41020000       1.77910000      -0.67210000
H       -0.98020000      -0.35880000       0.06820000
H        0.77010000      -1.46950000      -1.38950000
H        3.03090000      -0.69890000       1.03330000
H        2.51550000       0.76010000       1.97010000
H        2.18850000      -1.57270000       3.65830000
H        0.52390000       0.74620000       3.13340000
H       -0.52770000      -0.72610000       3.11380000
H        0.11760000      -2.59240000       1.91510000
H        1.67850000      -2.58770000       1.00280000
