21
Properties=species:S:1:pos:R:3 gdb_115813=T pbc="F F F"
O       -0.06010000       1.42080000      -0.06480000
C        0.02550000       0.00500000       0.03590000
C       -1.39010000      -0.55430000       0.01360000
C       -2.17650000      -0.21080000      -1.27870000
C       -3.23030000      -1.33000000      -1.42190000
C       -2.59390000      -2.54900000      -0.76630000
O       -3.43600000      -3.56040000      -0.29690000
C       -1.17440000      -2.88800000      -1.14600000
C       -1.46870000      -2.07250000       0.10780000
H        0.83290000       1.77670000      -0.07570000
H        0.60150000      -0.42030000      -0.80230000
H        0.53160000      -0.29680000       0.96730000
H       -1.92380000      -0.13270000       0.87600000
H       -2.61760000       0.78630000      -1.23860000
H       -1.49490000      -0.21470000      -2.13680000
H       -4.13890000      -1.08890000      -0.85770000
H       -3.52670000      -1.49840000      -2.46410000
H       -3.72380000      -4.08130000      -1.05440000
H       -0.87600000      -3.91610000      -0.97230000
H       -0.70980000      -2.42180000      -2.00900000
H       -1.29050000      -2.55560000       1.06210000
