18
Properties=species:S:1:pos:R:3 gdb_31265=T pbc="F F F"
C        0.26180000       0.72020000       0.66330000
N       -0.33820000       0.40380000      -0.64090000
C        0.37030000      -0.52900000      -1.41380000
C        0.67210000      -1.86950000      -1.28970000
O        0.27570000      -2.64790000      -0.25800000
C        0.69620000      -4.00560000      -0.31340000
N        1.41430000      -2.32090000      -2.33940000
C        1.58210000      -1.26660000      -3.12060000
N        0.97790000      -0.16940000      -2.61190000
H        0.39930000      -0.15960000       1.30740000
H        1.23950000       1.18520000       0.50630000
H       -0.37700000       1.44140000       1.18250000
H       -1.29930000       0.10770000      -0.51130000
H        0.30660000      -4.50710000      -1.20560000
H        1.78850000      -4.08410000      -0.32480000
H        0.29690000      -4.47880000       0.58560000
H        2.12830000      -1.25750000      -4.05130000
H        0.93830000       0.75520000      -3.00790000
