20
Properties=species:S:1:pos:R:3 gdb_24580=T pbc="F F F"
C       -0.04230000       1.62070000       0.05690000
C        1.50480000       1.54720000       0.13840000
C        1.38100000       0.03530000       0.51600000
C       -0.06620000       0.07550000      -0.07390000
C        2.37070000      -0.94590000      -0.00530000
C        2.80120000      -1.21910000      -1.28970000
C        3.76670000      -2.26020000      -1.21840000
C        3.90510000      -2.60110000       0.10680000
N        3.05660000      -1.80000000       0.82860000
H       -0.48300000       1.95500000       1.00090000
H       -0.48050000       2.20550000      -0.75480000
H        1.96830000       1.65920000      -0.84570000
H        2.02150000       2.20280000       0.84400000
H        1.31990000      -0.05690000       1.60730000
H       -0.84300000      -0.48080000       0.45700000
H       -0.06200000      -0.24290000      -1.12000000
H        2.45800000      -0.72230000      -2.18500000
H        4.29800000      -2.70720000      -2.04460000
H        4.52650000      -3.33560000       0.59320000
H        2.94550000      -1.82680000       1.82740000
