19
Properties=species:S:1:pos:R:3 gdb_38723=T pbc="F F F"
C       -0.07010000       1.58910000      -0.14580000
C        1.39730000       1.95520000       0.10920000
O        2.46650000       1.91710000      -0.86620000
C        2.17380000       0.73410000      -0.12740000
C        1.25390000      -0.25370000      -0.84300000
C        0.00420000       0.03980000       0.00640000
C        0.37460000      -0.46530000       1.43430000
O        1.60980000      -0.00170000       2.00260000
C        2.75280000       0.14570000       1.13320000
H       -0.71220000       2.07610000       0.59390000
H       -0.43460000       1.86360000      -1.14140000
H        1.62670000       2.59350000       0.95730000
H        1.12830000       0.01760000      -1.89370000
H        1.59650000      -1.29010000      -0.77800000
H       -0.91150000      -0.47790000      -0.30390000
H       -0.38580000      -0.17310000       2.16630000
H        0.38210000      -1.56630000       1.38550000
H        3.24660000      -0.82300000       0.97170000
H        3.44240000       0.81690000       1.65140000
