23
Properties=species:S:1:pos:R:3 gdb_40719=T pbc="F F F"
C       -0.20440000       1.38700000      -0.17800000
C        1.24260000       1.12710000       0.16520000
C        0.27740000      -0.02610000       0.04170000
C       -0.15340000      -0.79520000       1.26890000
C       -1.50410000      -1.58610000       1.12250000
C       -1.01590000      -2.99700000       1.50830000
C       -0.10580000      -2.70130000       2.73630000
C        0.76150000      -1.98100000       1.66380000
C        0.30480000      -3.11230000       0.69570000
H       -0.83320000       1.83040000       0.58750000
H       -0.44640000       1.70270000      -1.18680000
H        1.98890000       1.26520000      -0.60940000
H        1.58220000       1.39770000       1.16000000
H        0.37950000      -0.62730000      -0.85850000
H       -0.21570000      -0.08810000       2.10570000
H       -2.28510000      -1.21260000       1.79130000
H       -1.89170000      -1.54580000       0.09950000
H       -1.75700000      -3.79720000       1.51870000
H       -0.51800000      -2.10050000       3.55370000
H        0.37250000      -3.60000000       3.13370000
H        1.81530000      -1.75340000       1.82900000
H        0.83140000      -4.05200000       0.87930000
H        0.27270000      -2.90920000      -0.37870000
