16
Properties=species:S:1:pos:R:3 gdb_29654=T pbc="F F F"
C       -0.14380000       1.44420000       0.01400000
N       -0.05380000       0.00310000       0.02860000
C       -0.03310000      -0.76320000      -1.13220000
O       -0.04300000      -0.36560000      -2.28360000
N       -0.00020000      -2.07400000      -0.67220000
C        0.10360000      -2.09230000       0.73080000
O        0.22260000      -3.24770000       1.43960000
C        0.03750000      -0.81780000       1.16430000
N       -0.07640000      -0.28180000       2.45460000
H        0.80280000       1.91800000       0.30260000
H       -0.37970000       1.73780000      -1.01010000
H       -0.92960000       1.78660000       0.69310000
H        0.26460000      -2.83260000      -1.27680000
H       -0.61980000      -3.72130000       1.43050000
H       -0.14670000      -1.03370000       3.13100000
H        0.72610000       0.28840000       2.70900000
