16
Properties=species:S:1:pos:R:3 gdb_49280=T pbc="F F F"
O       -0.18190000       0.01780000       0.20350000
C       -0.07390000       1.22800000       0.14470000
C        1.17050000       1.95160000       0.08570000
C        1.29600000       3.28590000      -0.10620000
N        2.58760000       3.69300000      -0.28410000
C        3.49390000       2.59120000       0.08240000
C        2.56820000       1.32610000       0.06260000
C        2.86700000       0.41120000       1.15740000
C        3.16460000      -0.31370000       2.06810000
H       -0.97670000       1.88370000       0.12700000
H        0.49130000       4.00840000      -0.17970000
H        2.85180000       4.64130000      -0.06620000
H        4.32380000       2.51360000      -0.62330000
H        3.90280000       2.74020000       1.08820000
H        2.69960000       0.78570000      -0.88460000
H        3.39420000      -0.97490000       2.86640000
