20
Properties=species:S:1:pos:R:3 gdb_105114=T pbc="F F F"
O        0.09840000       1.39030000       0.04860000
C       -0.02170000      -0.01390000       0.23630000
C       -1.45820000      -0.50830000       0.09580000
C       -2.56540000       0.36110000       0.56830000
N       -2.33730000       0.16130000      -0.87520000
C       -1.63900000      -2.00780000       0.12700000
C       -0.90900000      -2.89290000      -0.91240000
C       -0.32380000      -3.60610000       0.32170000
O       -0.91390000      -2.63730000       1.21670000
H       -0.09340000       1.82270000       0.88540000
H        0.60000000      -0.46910000      -0.54290000
H        0.38190000      -0.33510000       1.20340000
H       -3.47490000      -0.08500000       0.96140000
H       -2.31910000       1.33120000       0.99140000
H       -1.83720000       0.97630000      -1.22840000
H       -2.71200000      -2.23180000       0.18660000
H       -1.55370000      -3.48680000      -1.56050000
H       -0.17630000      -2.36770000      -1.52710000
H       -0.71760000      -4.61470000       0.50120000
H        0.76820000      -3.63190000       0.41050000
