17
Properties=species:S:1:pos:R:3 gdb_34807=T pbc="F F F"
N       -0.01980000      -1.18980000      -0.04520000
C        0.00000000      -0.03460000      -0.01880000
C       -0.04130000       1.42220000       0.00520000
C       -0.16090000       2.06960000       1.41360000
C        1.36890000       1.75060000       1.47090000
N        1.34850000       2.05030000      -0.03490000
C        1.02310000       3.50750000       0.05480000
C       -0.32540000       4.06080000      -0.31460000
C       -0.08300000       3.57600000       1.09660000
H       -0.71570000       1.74050000      -0.78830000
H       -0.88760000       1.72630000       2.15040000
H        2.01030000       2.41610000       2.05140000
H        1.62210000       0.70450000       1.65290000
H        1.89890000       4.14360000       0.04620000
H       -0.33740000       5.14140000      -0.42340000
H       -1.00920000       3.57240000      -0.99860000
H       -0.09020000       4.27310000       1.92590000
