21
Properties=species:S:1:pos:R:3 gdb_121567=T pbc="F F F"
C       -0.45330000       1.40730000       0.40920000
C        0.02980000       0.00520000       0.08160000
O        0.72350000      -0.50200000       1.20530000
C        1.21470000      -1.81000000       0.99070000
C        1.91120000      -2.29200000       2.17460000
C        2.48410000      -2.71900000       3.14220000
C        3.20180000      -3.21110000       4.30880000
O        2.37400000      -4.06790000       5.07140000
C        3.03400000      -4.56030000       6.21390000
H        0.39320000       2.05940000       0.64160000
H       -0.99690000       1.83100000      -0.44050000
H       -1.12000000       1.38950000       1.27570000
H       -0.82190000      -0.65080000      -0.16800000
H        0.69260000       0.01880000      -0.80100000
H        0.38690000      -2.49900000       0.74710000
H        1.89830000      -1.82690000       0.12340000
H        4.11430000      -3.74450000       3.98830000
H        3.53960000      -2.35630000       4.92110000
H        2.32910000      -5.20780000       6.74000000
H        3.92880000      -5.14710000       5.95060000
H        3.34480000      -3.74810000       6.89070000
