17
Properties=species:S:1:pos:R:3 gdb_84588=T pbc="F F F"
O        0.37170000       0.94350000      -0.91120000
C        0.07840000      -0.20930000      -0.14990000
C        0.59950000      -0.19870000       1.27920000
C       -0.29990000      -0.61340000       2.17170000
C       -1.63710000      -0.94150000       1.55250000
C       -2.73240000       0.15730000       1.77750000
C       -2.23280000       0.78930000       0.47480000
O       -2.27750000       1.89900000       0.01600000
C       -1.43260000      -0.46480000       0.07640000
H       -0.26030000       1.63400000      -0.67020000
H        0.53390000      -1.03980000      -0.70560000
H        1.61760000       0.10420000       1.49750000
H       -0.12840000      -0.69690000       3.24010000
H       -1.96420000      -1.96920000       1.72220000
H       -3.75000000      -0.23330000       1.66730000
H       -2.68150000       0.77900000       2.67490000
H       -1.91640000      -1.04800000      -0.70940000
