18
Properties=species:S:1:pos:R:3 gdb_67108=T pbc="F F F"
C       -0.10810000       1.51500000      -0.10920000
C       -0.07010000       0.02130000      -0.06780000
C        0.85010000      -0.96610000      -0.82250000
O        1.89440000      -0.96860000       0.26030000
C        0.61320000      -0.92230000       0.95480000
C       -0.12110000      -0.86660000       2.26650000
C       -1.54770000      -0.85480000       1.54410000
N       -1.28710000      -0.88160000       0.04600000
C       -0.12890000      -1.84640000      -0.03080000
H        0.91340000       1.90790000      -0.08590000
H       -0.59750000       1.87010000      -1.02150000
H       -0.65280000       1.92580000       0.74770000
H        1.22190000      -1.00360000      -1.84530000
H        0.01950000      -1.74030000       2.90650000
H        0.06270000       0.03990000       2.84840000
H       -2.14040000      -1.73190000       1.81390000
H       -2.12370000       0.03870000       1.79490000
H       -0.23650000      -2.93020000      -0.00150000
