15
Properties=species:S:1:pos:R:3 gdb_47148=T pbc="F F F"
O       -0.44830000       0.61970000       1.71560000
C       -0.21400000       1.43740000       0.87060000
O       -1.18720000       2.19520000       0.27280000
C       -0.59180000       3.08690000      -0.66950000
C        0.87810000       2.80220000      -0.60750000
C        1.09480000       1.83330000       0.28370000
C        2.35670000       1.20450000       0.71350000
C        3.20910000       0.45040000      -0.22590000
O        3.55900000       1.76860000       0.18890000
H       -1.02170000       2.89890000      -1.66160000
H       -0.83610000       4.11900000      -0.38760000
H        1.62080000       3.32570000      -1.19420000
H        2.39270000       0.92150000       1.76460000
H        3.84540000      -0.34720000       0.15380000
H        2.89350000       0.35340000      -1.26310000
