21
Properties=species:S:1:pos:R:3 gdb_22238=T pbc="F F F"
C       -0.28790000       1.47200000       0.77600000
N       -0.13810000       0.00100000       0.79320000
H       -0.33460000      -0.42570000       1.71480000
H       -0.75180000      -0.45900000       0.12010000
C        1.33880000      -0.61540000       0.47050000
C        1.28820000      -2.04470000       0.68710000
N        1.02780000      -2.77390000      -0.41640000
O        0.85190000      -4.01270000      -0.28000000
C        1.22190000      -2.60480000       2.07260000
C        2.54520000      -2.64690000       2.83420000
O        0.26010000      -1.77430000       2.81810000
H       -0.02190000       1.84730000      -0.21400000
H       -1.31370000       1.76130000       1.01450000
H        0.39060000       1.89910000       1.51650000
H        1.50910000      -0.36200000      -0.57710000
H        1.96920000      -0.02530000       1.14250000
H        0.82240000      -3.62020000       1.95720000
H        2.99400000      -1.65080000       2.91610000
H        2.41510000      -3.04460000       3.84970000
H        3.24740000      -3.29960000       2.30800000
H        0.14520000      -2.14560000       3.69860000
