16
Properties=species:S:1:pos:R:3 gdb_66814=T pbc="F F F"
O       -0.14890000       1.41670000       0.07440000
C        0.01530000       0.05010000       0.04750000
C       -0.08350000      -0.84150000      -1.17380000
C        0.95170000      -1.94240000      -1.08670000
C        1.75250000      -1.78920000       0.15450000
C        0.87940000      -0.83640000       0.99770000
C       -0.22990000      -1.92300000       0.89640000
C       -1.06430000      -1.00810000      -0.01410000
N        0.67420000      -2.83990000       0.07050000
H        0.58880000       1.82300000      -0.39500000
H       -0.43780000      -0.43930000      -2.11360000
H        1.34210000      -2.43150000      -1.97050000
H        2.79940000      -2.04300000       0.28160000
H        1.21930000      -0.43290000       1.94730000
H       -0.67520000      -2.40510000       1.76260000
H       -2.13930000      -0.93040000      -0.11530000
