17
Properties=species:S:1:pos:R:3 gdb_31830=T pbc="F F F"
C        0.03280000       1.43540000      -0.11290000
N       -0.00090000       0.01210000       0.16530000
C       -1.20810000      -0.68310000       0.09280000
C       -2.46920000      -0.07770000       0.11010000
N       -3.60900000      -0.76920000       0.09800000
C       -3.50390000      -2.10080000       0.06200000
N       -4.67150000      -2.83050000       0.11820000
N       -2.35510000      -2.79550000       0.00860000
C       -1.23790000      -2.08360000       0.02830000
H        1.07140000       1.77260000      -0.09810000
H       -0.40960000       1.70730000      -1.08530000
H       -0.50340000       1.98910000       0.66570000
H        0.77210000      -0.49560000      -0.23910000
H       -2.56990000       1.00410000       0.13230000
H       -5.50110000      -2.32690000      -0.15240000
H       -4.59990000      -3.77570000      -0.22300000
H       -0.30330000      -2.64430000      -0.01490000
