15
Properties=species:S:1:pos:R:3 gdb_21317=T pbc="F F F"
C        0.09690000       1.38820000       0.05130000
O        0.19310000      -0.01620000       0.09030000
C        0.58040000      -0.56930000      -1.14810000
C        0.57600000      -2.05810000      -1.01610000
N        1.33240000      -2.84380000      -1.78470000
N        1.01380000      -4.06490000      -1.37270000
N        0.12400000      -4.15050000      -0.39480000
C       -0.17480000      -2.87400000      -0.15040000
H        1.06210000       1.85640000      -0.19730000
H       -0.64820000       1.72600000      -0.68640000
H       -0.21180000       1.72080000       1.04490000
H       -0.11910000      -0.25170000      -1.94170000
H        1.58170000      -0.22350000      -1.45020000
H        1.44060000      -4.88420000      -1.77330000
H       -0.87990000      -2.59600000       0.61450000
