20
Properties=species:S:1:pos:R:3 gdb_6477=T pbc="F F F"
C        0.13500000       1.27450000      -0.41940000
C       -0.16130000      -0.20440000      -0.14860000
C       -1.62610000      -0.49670000       0.19290000
O       -2.04790000       0.18890000       1.35850000
C       -2.59730000      -0.42450000      -1.03440000
C       -2.55670000      -1.96580000      -1.12820000
O       -1.65480000      -2.34640000      -2.15650000
C       -1.94650000      -2.00960000       0.30070000
H        1.18220000       1.41610000      -0.70210000
H       -0.48180000       1.66890000      -1.23450000
H       -0.03820000       1.89560000       0.46760000
H        0.10600000      -0.80270000      -1.02550000
H        0.45740000      -0.55690000       0.68650000
H       -1.89330000       1.13030000       1.22750000
H       -3.57880000      -0.05700000      -0.72700000
H       -2.26460000       0.10400000      -1.93090000
H       -3.52240000      -2.47120000      -1.25390000
H       -1.46440000      -3.28410000      -2.04860000
H       -1.10470000      -2.69090000       0.45700000
H       -2.70480000      -2.18180000       1.06830000
