20
Properties=species:S:1:pos:R:3 gdb_94298=T pbc="F F F"
C       -0.63050000       1.25950000       0.00420000
C        0.14600000      -0.04130000      -0.11880000
C        1.55990000      -0.05030000      -0.76710000
C        1.98490000      -1.13790000       0.25560000
C        0.78160000      -0.71370000       1.13280000
C        1.03780000       0.09600000       2.44150000
C        0.24940000      -1.02820000       3.15710000
O       -0.07170000      -1.28280000       4.28610000
N        0.04120000      -1.66630000       1.95710000
H       -0.01400000       2.05410000       0.43790000
H       -0.96980000       1.60570000      -0.97800000
H       -1.51730000       1.13670000       0.63600000
H       -0.47700000      -0.79570000      -0.61680000
H        1.62780000      -0.29830000      -1.82790000
H        2.08310000       0.89520000      -0.59440000
H        1.84550000      -2.14650000      -0.14600000
H        2.98090000      -1.07430000       0.70080000
H        2.08290000       0.17440000       2.74690000
H        0.56180000       1.07580000       2.50110000
H       -0.40440000      -2.54550000       1.73630000
