19
Properties=species:S:1:pos:R:3 gdb_86254=T pbc="F F F"
C       -0.31330000       1.49890000      -0.04100000
C        0.02330000       0.01150000      -0.08060000
C        1.04590000      -0.39230000      -1.17770000
N        1.87670000      -1.37440000      -0.47630000
C        3.14370000      -1.77800000      -1.05540000
C        1.62190000      -1.19770000       0.86620000
C        2.36850000      -1.85390000       1.97800000
O        3.28840000      -2.62710000       1.86120000
N        0.61900000      -0.45460000       1.18640000
H        0.59260000       2.09410000       0.11280000
H       -0.77950000       1.81740000      -0.97920000
H       -1.00380000       1.71140000       0.77910000
H       -0.90860000      -0.55590000      -0.21880000
H        0.58340000      -0.82540000      -2.06980000
H        1.65850000       0.46790000      -1.49780000
H        3.80420000      -0.91460000      -1.23560000
H        3.64510000      -2.47460000      -0.38660000
H        2.96490000      -2.27030000      -2.01700000
H        1.96510000      -1.54860000       2.96240000
