21
Properties=species:S:1:pos:R:3 gdb_94051=T pbc="F F F"
O       -0.80830000       1.32750000       0.70790000
C       -0.16910000       0.18930000       0.12650000
C        0.73440000      -0.53260000       1.13520000
C       -0.25580000      -1.24520000       2.07960000
C       -1.52810000      -1.53330000       1.22370000
C       -2.81800000      -1.00080000       1.89040000
C       -3.09510000      -1.61260000       3.18480000
C       -3.30400000      -2.13230000       4.24910000
C       -1.26560000      -0.84310000      -0.14400000
H       -0.12360000       1.91420000       1.04450000
H        0.36640000       0.48150000      -0.78820000
H        1.35700000      -1.25890000       0.59850000
H        1.41620000       0.14990000       1.65530000
H        0.16730000      -2.15540000       2.51030000
H       -0.51510000      -0.59320000       2.91830000
H       -1.65010000      -2.61080000       1.08060000
H       -2.72480000       0.08630000       2.00080000
H       -3.67020000      -1.17360000       1.22040000
H       -3.49900000      -2.58280000       5.19020000
H       -2.15810000      -0.37190000      -0.56510000
H       -0.89830000      -1.56970000      -0.87580000
