16
Properties=species:S:1:pos:R:3 gdb_12716=T pbc="F F F"
C       -0.31650000       1.45200000       0.00280000
C        0.06450000       0.00010000       0.01160000
O       -1.07140000      -0.90630000       0.08970000
C       -0.50030000      -1.61410000       1.21700000
C        0.81420000      -0.83230000       1.11700000
C        1.79800000      -1.39510000       0.05590000
C        1.06470000      -0.57260000      -1.02780000
O        1.22100000      -0.41160000      -2.20140000
H        0.57390000       2.08880000       0.00960000
H       -0.88540000       1.67560000      -0.90560000
H       -0.93620000       1.69880000       0.86980000
H       -1.07960000      -1.42690000       2.12960000
H       -0.44300000      -2.69540000       1.04400000
H        1.23880000      -0.39610000       2.01860000
H        2.82960000      -1.04940000       0.18000000
H        1.81330000      -2.47960000      -0.08610000
