20
Properties=species:S:1:pos:R:3 gdb_88088=T pbc="F F F"
C       -0.16670000       1.45480000       0.01000000
N       -0.00300000       0.00970000       0.09060000
C        1.32070000      -0.53110000      -0.21850000
C        0.79420000      -0.55270000       1.17460000
C        1.40900000       0.30790000       2.29400000
O        1.74550000      -0.58180000       3.35380000
C        0.98990000      -1.76070000       3.21330000
C       -0.50600000      -1.65280000       3.10090000
C        0.35600000      -1.81910000       1.85610000
H        0.73080000       2.03140000       0.28820000
H       -0.43120000       1.72120000      -1.01810000
H       -0.99020000       1.76720000       0.66000000
H        1.33680000      -1.43460000      -0.82420000
H        2.12330000       0.17420000      -0.43600000
H        2.31900000       0.83600000       1.99680000
H        0.68330000       1.05800000       2.64300000
H        1.45920000      -2.60250000       3.70790000
H       -1.09030000      -2.51290000       3.40970000
H       -0.98480000      -0.69690000       3.28530000
H        0.29020000      -2.72890000       1.27260000
