18
Properties=species:S:1:pos:R:3 gdb_68141=T pbc="F F F"
C       -0.13690000       1.48790000      -0.02800000
C        0.03830000      -0.00190000      -0.02120000
C        0.80000000      -0.79160000      -1.11610000
C       -0.22400000      -1.84630000      -0.63460000
C        0.25170000      -2.19300000       0.80070000
C        0.45350000      -0.72500000       1.28360000
O       -1.17170000      -0.76640000      -0.39340000
C       -0.70530000      -2.91910000      -1.48200000
N       -1.05530000      -3.79090000      -2.15470000
H        0.81070000       1.98140000       0.21090000
H       -0.47570000       1.83820000      -1.00640000
H       -0.87520000       1.78840000       0.72230000
H        0.56700000      -0.43180000      -2.11800000
H        1.86500000      -0.99990000      -0.99200000
H       -0.52780000      -2.72290000       1.34940000
H        1.16270000      -2.79520000       0.80590000
H        1.48210000      -0.50240000       1.57900000
H       -0.21330000      -0.45940000       2.10640000
