16
Properties=species:S:1:pos:R:3 gdb_14705=T pbc="F F F"
C       -0.11820000       1.10850000      -0.83990000
C       -0.10220000      -0.17440000      -0.02190000
O        1.04790000      -0.97770000      -0.32480000
C        0.91780000      -1.86140000      -1.32110000
N        1.92130000      -2.52050000      -1.71300000
C        1.76920000      -3.50250000      -2.76670000
C        0.42330000      -3.64800000      -3.35430000
N       -0.64820000      -3.72290000      -3.78190000
H        0.80480000       1.67340000      -0.68410000
H       -0.21520000       0.89390000      -1.90870000
H       -0.96460000       1.73410000      -0.53940000
H       -0.02580000       0.04100000       1.04670000
H       -1.01590000      -0.76070000      -0.18270000
H       -0.09910000      -1.95720000      -1.72540000
H        2.46720000      -3.26260000      -3.57850000
H        2.07990000      -4.48410000      -2.38700000
