10
Properties=species:S:1:pos:R:3 gdb_3938=T pbc="F F F"
O        0.10550000       1.29890000       0.11930000
C        0.07010000      -0.03380000       0.04790000
N        0.09230000      -0.58990000      -1.16860000
C        0.05450000      -1.91480000      -1.16610000
C       -0.00300000      -2.62120000       0.03330000
N       -0.02170000      -1.98760000       1.20550000
N        0.01520000      -0.66440000       1.22650000
H        0.14320000       1.62540000      -0.79050000
H        0.07040000      -2.41870000      -2.12950000
H       -0.03490000      -3.70400000       0.06960000
