19
Properties=species:S:1:pos:R:3 gdb_55155=T pbc="F F F"
C       -0.01750000       1.49520000       0.15040000
C        0.03360000      -0.02320000       0.07410000
O        1.07870000      -0.64590000       0.17600000
N       -1.15840000      -0.66180000      -0.11720000
C       -2.47570000      -0.03570000      -0.24000000
C       -3.34090000      -1.13220000      -0.82670000
N       -2.80310000      -1.65700000      -2.09710000
C       -2.56130000      -2.39240000      -0.83850000
C       -1.19260000      -2.12150000      -0.25500000
H        0.98500000       1.85360000       0.38160000
H       -0.34000000       1.92630000      -0.80360000
H       -0.71450000       1.84170000       0.92010000
H       -2.87770000       0.27720000       0.73530000
H       -2.43510000       0.84380000      -0.89030000
H       -4.41230000      -1.10640000      -0.66180000
H       -3.55170000      -2.11390000      -2.61250000
H       -3.02420000      -3.36070000      -0.68520000
H       -0.36910000      -2.44750000      -0.89510000
H       -1.07960000      -2.62020000       0.71720000
