17
Properties=species:S:1:pos:R:3 gdb_5257=T pbc="F F F"
C       -0.08010000       1.52790000       0.01160000
C       -0.01600000       0.01130000       0.00410000
O       -1.34300000      -0.48890000       0.01150000
C       -1.46380000      -1.84180000       0.00630000
C       -0.47630000      -2.80720000      -0.00550000
N       -1.11850000      -4.03060000      -0.00620000
C       -2.47280000      -3.85010000       0.00480000
C       -2.72600000      -2.49820000       0.01270000
H        0.92950000       1.94950000       0.00600000
H       -0.61470000       1.89450000      -0.86920000
H       -0.60150000       1.88640000       0.90350000
H        0.51370000      -0.35580000      -0.88870000
H        0.52660000      -0.36400000       0.88560000
H        0.59710000      -2.73830000      -0.01330000
H       -0.65260000      -4.91940000      -0.01360000
H       -3.14730000      -4.69110000       0.00610000
H       -3.69080000      -2.01710000       0.02210000
