19
Properties=species:S:1:pos:R:3 gdb_106728=T pbc="F F F"
C        0.10880000       1.50130000      -0.12120000
C       -0.03480000       0.03310000       0.16700000
O        1.18080000      -0.76410000       0.09030000
C        0.46920000      -0.71290000       1.34470000
C        1.27810000      -0.15580000       2.48530000
O        2.30830000      -1.05800000       2.86300000
C       -0.43690000      -1.92550000       1.56070000
C       -1.43320000      -1.81960000       0.42750000
C       -1.22800000      -0.73530000      -0.32180000
H        1.01160000       1.91140000       0.33520000
H        0.17300000       1.66910000      -1.20200000
H       -0.75910000       2.05510000       0.25190000
H        1.68910000       0.82600000       2.21230000
H        0.64790000      -0.02400000       3.37120000
H        2.83480000      -1.21550000       2.07060000
H        0.13270000      -2.86110000       1.53210000
H       -0.92620000      -1.88450000       2.54280000
H       -2.19500000      -2.57060000       0.25130000
H       -1.80450000      -0.43540000      -1.18880000
