19
Properties=species:S:1:pos:R:3 gdb_88004=T pbc="F F F"
C       -0.08440000       1.47130000      -0.09480000
C        0.07640000      -0.03240000      -0.05300000
C        1.46680000      -0.65670000      -0.04180000
C        0.60940000      -0.68760000       1.18110000
O        0.92770000       0.04160000       2.37420000
C        0.55120000      -1.07690000       3.21620000
C        0.13510000      -1.87270000       1.98180000
C       -0.91490000      -2.86090000       1.75660000
O        0.48070000      -3.21520000       1.72490000
H        0.66500000       1.96070000       0.53310000
H        0.02250000       1.85060000      -1.11650000
H       -1.07000000       1.77210000       0.27600000
H       -0.68790000      -0.59310000      -0.58780000
H        1.63480000      -1.59170000      -0.56620000
H        2.31510000       0.02040000      -0.02150000
H        1.40790000      -1.49720000       3.75530000
H       -0.24300000      -0.80950000       3.92180000
H       -1.47790000      -3.25740000       2.60060000
H       -1.42660000      -2.90110000       0.79610000
