18
Properties=species:S:1:pos:R:3 gdb_96889=T pbc="F F F"
C        0.32870000       1.52500000       0.23550000
N        0.39160000       0.06960000       0.23740000
C        0.45940000      -0.53910000      -0.85070000
C        0.54750000      -1.99240000      -1.26140000
C        0.59090000      -1.41580000      -2.69360000
C       -0.57490000      -1.75870000      -3.61770000
C       -0.55560000      -1.00720000      -4.86610000
C       -0.51760000      -0.38690000      -5.89400000
O        0.48950000      -0.05990000      -2.15640000
H        1.16300000       1.91880000       0.82620000
H        0.36120000       1.97440000      -0.76370000
H       -0.59310000       1.84340000       0.73470000
H        1.44440000      -2.51480000      -0.92540000
H       -0.33400000      -2.59150000      -1.02150000
H        1.54530000      -1.53550000      -3.21330000
H       -0.53360000      -2.83580000      -3.82940000
H       -1.51470000      -1.57840000      -3.08080000
H       -0.49360000       0.16560000      -6.80050000
