17
Properties=species:S:1:pos:R:3 gdb_28491=T pbc="F F F"
C       -0.00420000       1.50260000       0.01390000
C        0.02560000      -0.00460000       0.02060000
N        0.04280000      -0.61590000      -1.16830000
C        0.08510000      -1.94840000      -1.19320000
C        0.11430000      -2.77000000      -0.06520000
N        0.21950000      -4.16030000      -0.13310000
C        0.08600000      -2.11640000       1.17570000
O        0.09370000      -2.90990000       2.28560000
C        0.04250000      -0.73000000       1.21500000
H        0.94260000       1.90740000      -0.36100000
H       -0.79230000       1.86500000      -0.65270000
H       -0.17560000       1.90970000       1.01410000
H        0.09670000      -2.41330000      -2.17870000
H       -0.16410000      -4.56370000      -0.97590000
H       -0.11940000      -4.63040000       0.69440000
H        0.04980000      -2.35650000       3.07220000
H        0.01820000      -0.21560000       2.17240000
