17
Properties=species:S:1:pos:R:3 gdb_30243=T pbc="F F F"
C       -0.26090000       1.52600000       0.06260000
C       -0.01500000       0.02160000       0.06010000
C        0.62760000      -0.59340000      -1.25570000
N        1.73100000      -1.06650000      -0.39740000
C        3.04540000      -1.44300000      -0.16620000
C        3.22090000      -1.08620000       1.16000000
O        4.32920000      -1.30900000       1.90050000
N        2.11980000      -0.46720000       1.71480000
C        1.25910000      -0.48800000       0.71790000
H        0.62690000       2.07290000      -0.27020000
H       -1.09630000       1.78800000      -0.59470000
H       -0.50570000       1.86960000       1.07200000
H       -0.91920000      -0.51310000       0.36940000
H        0.07310000      -1.39450000      -1.75200000
H        0.93500000       0.15990000      -1.98690000
H        3.67540000      -1.96420000      -0.86330000
H        4.14180000      -0.94640000       2.77470000
