18
Properties=species:S:1:pos:R:3 gdb_88911=T pbc="F F F"
C       -0.14520000       1.48520000      -0.03290000
C        0.52000000       0.12650000      -0.06190000
C        1.94990000      -0.05430000       0.37690000
C        0.83110000      -0.66980000       1.19010000
C        0.48190000      -0.16590000       2.58340000
C        1.35910000      -0.82190000       3.62640000
O        0.99020000      -1.63630000       4.43370000
C        2.78450000      -0.41040000       3.60080000
N        3.88960000      -0.06960000       3.60200000
H        0.22610000       2.11070000       0.78430000
H        0.05290000       2.02570000      -0.96450000
H       -1.23190000       1.39910000       0.07660000
H        0.20900000      -0.49000000      -0.90140000
H        2.60260000      -0.71330000      -0.18410000
H        2.45450000       0.81020000       0.79670000
H        0.71270000      -1.74570000       1.09270000
H        0.62140000       0.91890000       2.64520000
H       -0.55410000      -0.40140000       2.84410000
