18
Properties=species:S:1:pos:R:3 gdb_9754=T pbc="F F F"
C        0.03860000       1.50660000      -0.04340000
C       -0.09720000      -0.01380000       0.07630000
C       -1.58060000      -0.44170000       0.09880000
O       -2.22380000      -0.10930000      -1.11390000
O        0.48350000      -0.62550000      -1.10320000
C        1.47580000      -1.58330000      -0.73970000
C        1.56830000      -1.49740000       0.75780000
C        0.69050000      -0.61200000       1.21300000
H        1.08560000       1.78530000      -0.18430000
H       -0.54730000       1.86300000      -0.89380000
H       -0.33650000       1.99790000       0.86070000
H       -1.63010000      -1.52350000       0.29880000
H       -2.11780000       0.07550000       0.90160000
H       -1.65030000      -0.45910000      -1.80810000
H        1.18260000      -2.58820000      -1.08310000
H        2.42580000      -1.33770000      -1.23820000
H        2.26180000      -2.08850000       1.34270000
H        0.52360000      -0.33430000       2.24620000
