20
Properties=species:S:1:pos:R:3 gdb_72871=T pbc="F F F"
C       -0.40200000       1.52480000      -0.08410000
C       -0.04030000       0.05830000      -0.09870000
C       -1.18550000      -0.97290000       0.07950000
C       -0.38910000      -1.54530000       1.28060000
N        0.68400000      -0.51050000       1.13170000
C        1.80170000      -0.95380000       0.24090000
C        1.12160000      -0.38690000      -1.02420000
C        3.08110000      -0.27080000       0.68010000
O        3.77990000       0.40870000      -0.02670000
H        0.49320000       2.14840000       0.00390000
H       -0.91750000       1.79850000      -1.01260000
H       -1.06460000       1.75760000       0.75580000
H       -2.14500000      -0.52500000       0.34840000
H       -1.34320000      -1.65070000      -0.76310000
H       -0.89380000      -1.46660000       2.24770000
H       -0.02730000      -2.57340000       1.16760000
H        1.97530000      -2.03940000       0.26140000
H        0.85800000      -1.11590000      -1.79310000
H        1.68810000       0.42690000      -1.48190000
H        3.31190000      -0.43030000       1.75700000
