17
Properties=species:S:1:pos:R:3 gdb_96655=T pbc="F F F"
C       -0.53620000       1.70890000      -1.04930000
N       -0.29270000       0.28710000      -1.03440000
C       -0.64730000      -0.47170000      -0.07780000
C       -1.36160000      -0.13690000       1.20490000
N       -0.30420000      -1.82690000      -0.28080000
C       -0.51510000      -2.93040000       0.51250000
O       -1.06770000      -2.93600000       1.59510000
C        0.01000000      -4.14790000      -0.09440000
C        0.43090000      -5.17120000      -0.56440000
H        0.42180000       2.23290000      -1.15080000
H       -1.12370000       1.95990000      -1.94060000
H       -1.05590000       2.12090000      -0.17480000
H       -1.57880000       0.92840000       1.26310000
H       -2.29280000      -0.70220000       1.28200000
H       -0.75830000      -0.43220000       2.06600000
H        0.17150000      -1.97330000      -1.16120000
H        0.79890000      -6.08250000      -0.96950000
