16
Properties=species:S:1:pos:R:3 gdb_22437=T pbc="F F F"
C       -0.08440000       1.40410000      -0.00700000
N       -0.05980000      -0.04470000      -0.00610000
C        0.60510000      -0.62100000      -0.93430000
N        1.33590000      -0.01550000      -1.93160000
C        0.64290000      -2.11330000      -0.93590000
N        1.24640000      -2.66870000      -1.93220000
O        1.24150000      -4.04590000      -1.87620000
C        0.02540000      -2.82970000       0.12620000
C       -0.47790000      -3.48360000       1.00090000
H        0.92670000       1.84000000       0.02740000
H       -0.58570000       1.81470000      -0.90010000
H       -0.63640000       1.76010000       0.86610000
H        1.08330000       0.92520000      -2.18450000
H        1.62840000      -0.61530000      -2.68770000
H        1.72420000      -4.29330000      -2.67350000
H       -0.92950000      -4.04100000       1.78410000
