20
Properties=species:S:1:pos:R:3 gdb_102113=T pbc="F F F"
C        0.38470000       1.91410000      -0.38050000
O       -0.24160000       0.75060000      -0.88590000
C        0.66560000      -0.29800000      -1.17530000
C        1.20320000      -0.92950000       0.11750000
O        2.35140000      -1.24580000       0.27760000
C       -0.03020000      -1.33300000      -2.05190000
N       -0.20280000      -2.68540000      -1.48920000
C       -1.39290000      -1.88490000      -1.79910000
C       -2.30440000      -1.49850000      -0.66030000
H        0.91050000       1.72930000       0.56760000
H        1.11030000       2.32340000      -1.09960000
H       -0.40220000       2.65150000      -0.20830000
H        1.54210000       0.09270000      -1.71480000
H        0.44280000      -1.03820000       0.92130000
H        0.25180000      -1.26500000      -3.10010000
H       -0.02660000      -3.39910000      -2.18940000
H       -1.92680000      -2.15120000      -2.71190000
H       -1.74230000      -1.24640000       0.23980000
H       -2.91090000      -0.63010000      -0.93320000
H       -2.97720000      -2.32940000      -0.42180000
