15
Properties=species:S:1:pos:R:3 gdb_7264=T pbc="F F F"
C       -0.06620000       1.59670000       0.04290000
C        0.04430000       0.06350000       0.06590000
O        0.83850000      -0.35540000       1.13930000
C       -1.33680000      -0.60190000       0.19080000
O       -1.63200000      -1.23020000       1.17950000
N       -2.17790000      -0.41730000      -0.90270000
C       -3.48750000      -0.87710000      -1.06600000
O       -4.12390000      -1.50430000      -0.26920000
H        0.94050000       2.02080000       0.03030000
H       -0.60330000       1.96460000      -0.83790000
H       -0.57880000       1.95250000       0.94110000
H        0.49670000      -0.27670000      -0.88110000
H        0.24850000      -0.87430000       1.71100000
H       -1.79830000       0.10310000      -1.68070000
H       -3.87290000      -0.57460000      -2.06060000
