15
Properties=species:S:1:pos:R:3 gdb_33449=T pbc="F F F"
N        0.11610000      -1.12290000       0.06160000
C        0.05730000       0.03140000       0.03890000
C        0.03290000       1.47480000       0.04370000
C       -1.06420000       2.06920000      -0.68160000
N       -1.93440000       2.56910000      -1.25510000
C        0.49530000       2.27500000       1.27360000
C        1.58350000       1.50050000       2.02430000
C        2.45500000       1.51970000       0.72150000
C        1.33520000       2.29340000       0.01790000
H       -0.17560000       3.02460000       1.67360000
H        2.02360000       2.09590000       2.82550000
H        1.29650000       0.52390000       2.41950000
H        3.35530000       2.12520000       0.83450000
H        2.72390000       0.55530000       0.28560000
H        1.43850000       3.05990000      -0.73960000
