17
Properties=species:S:1:pos:R:3 gdb_61787=T pbc="F F F"
C       -0.05640000       1.73140000      -0.04020000
C        0.06490000       0.21610000      -0.01390000
O        0.79380000      -0.15880000       1.16260000
C        1.80260000      -1.04740000       1.04700000
O        2.42980000      -1.43330000       1.98570000
C       -1.32000000      -0.48250000       0.03340000
O       -2.13890000      -0.04400000      -1.04410000
C       -1.17710000      -1.93790000       0.05280000
C       -1.03760000      -3.13110000       0.00580000
H        0.93190000       2.18990000      -0.12570000
H       -0.67220000       2.04000000      -0.88660000
H       -0.52330000       2.08980000       0.88210000
H        0.59920000      -0.14260000      -0.90500000
H        1.98440000      -1.35550000      -0.00000000
H       -1.82230000      -0.15070000       0.95010000
H       -1.94150000      -0.59730000      -1.80770000
H       -0.92860000      -4.18810000      -0.00840000
