20
Properties=species:S:1:pos:R:3 gdb_40570=T pbc="F F F"
C       -0.13320000       1.45860000       0.00250000
C        1.29080000       0.97700000       0.13750000
C        0.16200000      -0.02040000       0.05420000
C       -0.22900000      -0.83150000       1.26310000
C       -1.57380000      -1.54870000       1.09770000
C       -0.92490000      -2.78110000       0.59120000
C        0.38490000      -2.26450000       1.30840000
C       -0.24350000      -2.84980000       2.58120000
N       -1.59350000      -2.80820000       1.92250000
H       -0.59710000       1.91190000       0.87270000
H       -0.44500000       1.89150000      -0.94150000
H        1.95290000       1.07940000      -0.71510000
H        1.78060000       1.10980000       1.09690000
H        0.06740000      -0.55560000      -0.88790000
H       -0.09310000      -0.23310000       2.17430000
H       -2.53870000      -1.12670000       0.84790000
H       -1.14380000      -3.46750000      -0.21560000
H        1.42170000      -2.43030000       1.02070000
H        0.01500000      -3.89650000       2.76130000
H       -0.15570000      -2.27920000       3.51410000
