23
Properties=species:S:1:pos:R:3 gdb_107407=T pbc="F F F"
C       -0.24920000       1.53290000      -0.09980000
C        0.09130000       0.04280000       0.02150000
C        0.76580000      -0.50360000      -1.21160000
C        0.00770000      -0.98310000      -2.42320000
C        0.84170000      -1.95410000      -1.60280000
C        2.27680000      -2.19920000      -2.06040000
C        3.01640000      -0.92810000      -1.58200000
C        4.14490000      -0.44600000      -2.47610000
O        2.01130000       0.09540000      -1.51100000
H        0.65510000       2.11450000      -0.29870000
H       -0.94960000       1.71050000      -0.92250000
H       -0.70490000       1.90960000       0.82100000
H        0.75070000      -0.11640000       0.88450000
H       -0.81930000      -0.53860000       0.20940000
H       -1.07230000      -1.07030000      -2.35340000
H        0.38250000      -0.68410000      -3.39670000
H        0.32940000      -2.71740000      -1.02790000
H        2.70210000      -3.10130000      -1.61180000
H        2.34790000      -2.30720000      -3.14920000
H        3.40570000      -1.10660000      -0.56580000
H        3.77630000      -0.26250000      -3.49030000
H        4.57210000       0.48460000      -2.09210000
H        4.94150000      -1.19540000      -2.52420000
