20
Properties=species:S:1:pos:R:3 gdb_79178=T pbc="F F F"
C       -0.33580000       1.55050000       0.07000000
C        0.00950000       0.06580000       0.00650000
C        0.68390000      -0.43210000      -1.32630000
O        0.76880000       0.52670000      -2.36910000
C        2.09310000      -0.80920000      -0.86990000
C        2.82320000       0.45570000      -0.32170000
C        2.31280000       0.07870000       1.07650000
C        1.90540000      -1.28210000       0.60040000
N        0.90510000      -0.35670000       1.10640000
H        0.54170000       2.18560000      -0.06600000
H       -1.06370000       1.81710000      -0.70320000
H       -0.78050000       1.78080000       1.04230000
H       -0.91570000      -0.50320000       0.16050000
H        0.15410000      -1.32770000      -1.68610000
H       -0.12100000       0.71080000      -2.68430000
H        2.64630000      -1.43260000      -1.57060000
H        3.90850000       0.33450000      -0.36940000
H        2.55120000       1.42070000      -0.75350000
H        2.74490000       0.38140000       2.02410000
H        2.02730000      -2.27160000       1.02460000
