15
Properties=species:S:1:pos:R:3 gdb_48877=T pbc="F F F"
O       -0.12680000       0.01290000      -0.00930000
C        0.05860000       1.18060000       0.21570000
C        1.37730000       1.86640000      -0.00880000
O        1.52340000       3.05020000       0.89650000
C        1.94000000       3.81840000      -0.20510000
C        3.02840000       3.07120000      -1.07020000
C        3.62980000       1.86380000      -0.45630000
C        2.67070000       1.10770000       0.09760000
C        1.54490000       2.83150000      -1.23900000
H       -0.74000000       1.85170000       0.59710000
H        1.89140000       4.89710000      -0.12180000
H        3.55140000       3.67960000      -1.79830000
H        4.69650000       1.68670000      -0.39910000
H        2.78810000       0.21170000       0.69020000
H        0.96940000       2.87480000      -2.15460000
