17
Properties=species:S:1:pos:R:3 gdb_39910=T pbc="F F F"
C       -0.06940000       1.47840000       0.10380000
C        1.28800000       0.82330000       0.01310000
C        0.03310000      -0.01820000      -0.01540000
N       -0.46080000      -0.80700000       1.10900000
C       -0.68040000      -1.96160000       0.60490000
N       -2.09610000      -2.29040000       0.33410000
C       -1.58280000      -1.91650000      -1.09480000
C       -0.16760000      -2.25020000      -0.85300000
C       -0.41050000      -0.83260000      -1.22770000
H       -0.38920000       1.86970000       1.06200000
H       -0.43820000       2.02010000      -0.76130000
H        1.85730000       0.92760000      -0.90470000
H        1.88770000       0.76990000       0.91430000
H       -2.21130000      -3.30700000       0.24950000
H       -2.23110000      -2.13720000      -1.93730000
H        0.50470000      -3.01010000      -1.22910000
H       -0.24790000      -0.47080000      -2.24040000
