18
Properties=species:S:1:pos:R:3 gdb_20183=T pbc="F F F"
C        0.02440000       1.61140000      -0.04070000
C        1.54960000       1.58520000      -0.12170000
C        2.19480000       0.75120000       0.96620000
C        1.69390000       0.49400000       2.38000000
C        0.18100000       0.21690000       2.46340000
O       -0.33150000      -0.50490000       1.35250000
C        0.03720000       0.04640000       0.10370000
C        1.54820000       0.05210000      -0.19080000
H       -0.44970000       2.20680000       0.74360000
H       -0.42310000       1.89080000      -0.99830000
H        2.14920000       2.27320000      -0.70620000
H        3.28010000       0.78220000       0.89760000
H        2.23880000      -0.38090000       2.75640000
H        1.93900000       1.32850000       3.04850000
H       -0.04260000      -0.39490000       3.34190000
H       -0.36810000       1.16150000       2.58080000
H       -0.57510000      -0.46640000      -0.63900000
H        2.07130000      -0.61980000      -0.85980000
