20
Properties=species:S:1:pos:R:3 gdb_41846=T pbc="F F F"
C        0.00090000       1.54290000       0.14950000
C        1.43040000       2.09730000       0.01820000
C        2.16050000       1.54320000      -1.21260000
C        2.17720000       0.01610000      -1.19960000
C        0.71290000      -0.43550000      -1.29450000
C       -0.06140000       0.01870000      -0.03850000
N        0.09260000       0.10900000      -2.50680000
C        0.54050000       1.21340000      -2.93410000
O        1.51760000       2.00360000      -2.42690000
H       -0.41290000       1.81790000       1.12530000
H       -0.63870000       2.02240000      -0.59930000
H        1.41310000       3.19100000      -0.02830000
H        2.02730000       1.82480000       0.89890000
H        3.17010000       1.95940000      -1.26690000
H        2.75090000      -0.36620000      -2.04990000
H        2.65330000      -0.34470000      -0.28180000
H        0.65440000      -1.52650000      -1.36500000
H        0.37470000      -0.49060000       0.83120000
H       -1.10350000      -0.30700000      -0.11380000
H        0.14060000       1.66510000      -3.84080000
