16
Properties=species:S:1:pos:R:3 gdb_71370=T pbc="F F F"
O        0.12670000       1.38790000       0.10920000
C        0.06360000       0.01800000       0.03960000
C        0.65740000      -0.97770000       1.03090000
N        0.00900000      -1.90620000      -0.00270000
C       -1.18840000      -0.91570000      -0.02150000
C       -1.71910000      -0.91550000      -1.44250000
O       -1.30030000       0.25060000      -2.18740000
C       -0.47180000      -0.93410000      -2.20830000
C        0.55510000      -0.94160000      -1.09190000
H       -0.34600000       1.71350000      -0.66860000
H        1.74510000      -1.07160000       1.07930000
H        0.20650000      -1.04860000       2.02390000
H       -1.87210000      -1.00230000       0.82250000
H       -2.65310000      -1.37020000      -1.75040000
H       -0.33390000      -1.40480000      -3.17430000
H        1.61500000      -1.05420000      -1.31840000
