22
Properties=species:S:1:pos:R:3 gdb_58909=T pbc="F F F"
C       -0.02440000       1.53720000      -0.01300000
C        0.03640000       0.00160000      -0.04940000
C        0.66910000      -0.49900000      -1.35600000
C        0.73650000      -0.54090000       1.17920000
C        2.25040000      -0.29680000       1.47710000
C        2.18290000      -1.57860000       2.30240000
C        0.97920000      -2.05780000       1.58730000
N        0.85830000      -1.65740000       3.01690000
C        0.13690000      -0.41390000       2.59560000
H        0.98100000       1.97130000      -0.05240000
H       -0.58670000       1.92510000      -0.86830000
H       -0.51010000       1.89990000       0.89870000
H       -0.99700000      -0.37520000      -0.01790000
H        1.68660000      -0.11290000      -1.48090000
H        0.71970000      -1.59230000      -1.38410000
H        0.08380000      -0.16820000      -2.22010000
H        2.87540000      -0.44550000       0.59290000
H        2.52510000       0.64160000       1.97180000
H        2.99140000      -2.14820000       2.74130000
H        0.67570000      -3.01930000       1.19370000
H        0.36520000       0.48380000       3.18350000
H       -0.93850000      -0.61330000       2.62670000
