10
Properties=species:S:1:pos:R:3 gdb_217=T pbc="F F F"
C       -0.02980000       1.38930000       0.01040000
C        1.19490000       2.04660000       0.00190000
N        2.35820000       1.39060000      -0.01310000
C        2.27240000       0.05900000      -0.01960000
N        1.16160000      -0.68030000      -0.01270000
C        0.01230000      -0.00000000       0.00240000
H       -0.96800000       1.93140000       0.02260000
H        1.25040000       3.13310000       0.00730000
H        3.21410000      -0.48510000      -0.03190000
H       -0.90130000      -0.59060000       0.00810000
