17
Properties=species:S:1:pos:R:3 gdb_49005=T pbc="F F F"
O       -0.35310000       0.13610000      -0.02650000
C       -0.05050000       1.26840000       0.26030000
C        1.29240000       1.87970000       0.02320000
C        1.74010000       3.05560000       0.93560000
C        2.00220000       3.96530000      -0.29770000
C        1.51940000       2.82920000      -1.24890000
C        2.65470000       1.88180000      -1.66430000
O        3.43680000       1.90180000      -2.56850000
C        2.41220000       0.93490000      -0.48050000
H       -0.79830000       1.96120000       0.71190000
H        0.93140000       3.42470000       1.57330000
H        2.60020000       2.83520000       1.57210000
H        1.36200000       4.84850000      -0.33370000
H        3.03400000       4.28670000      -0.45690000
H        0.75340000       3.06300000      -1.98910000
H        3.26080000       0.74470000       0.18200000
H        1.99460000      -0.02320000      -0.80990000
