23
Properties=species:S:1:pos:R:3 gdb_94855=T pbc="F F F"
O        0.14920000       1.45060000       0.00460000
C        0.07940000       0.02700000      -0.00940000
C        0.72880000      -0.61140000       1.23870000
C       -0.44440000      -0.80380000       2.20960000
C       -1.57010000      -1.32320000       1.29510000
C       -1.57840000      -2.88470000       1.18580000
C       -2.73600000      -2.92590000       2.21730000
C       -2.97620000      -1.41560000       1.95290000
C       -1.38580000      -0.50200000       0.00240000
H       -0.31120000       1.76280000       0.79090000
H        0.60740000      -0.25330000      -0.92430000
H        1.15050000      -1.58930000       0.97650000
H        1.54290000       0.00870000       1.62250000
H       -0.21850000      -1.47590000       3.04320000
H       -0.73970000       0.15960000       2.65070000
H       -1.90260000      -3.21900000       0.19540000
H       -0.65290000      -3.41000000       1.44080000
H       -3.56360000      -3.60860000       2.01260000
H       -2.37940000      -3.11570000       3.23320000
H       -3.16090000      -0.77000000       2.81730000
H       -3.77530000      -1.25170000       1.22310000
H       -2.06010000       0.36260000      -0.00920000
H       -1.62230000      -1.09140000      -0.88900000
