21
Properties=species:S:1:pos:R:3 gdb_86350=T pbc="F F F"
C       -0.02870000       1.58910000      -0.02420000
C        0.00130000       0.07290000      -0.09510000
C        0.71570000      -0.62460000      -1.27960000
C        1.30610000      -1.59860000      -0.23050000
C        2.76970000      -1.99530000      -0.30270000
N        0.95740000      -0.60740000       0.81770000
C        0.48060000      -1.12600000       2.08260000
C        0.22110000      -0.05860000       3.05690000
N       -0.00250000       0.77620000       3.82360000
H        0.97950000       1.99630000      -0.14400000
H       -0.66640000       1.99340000      -0.81810000
H       -0.42360000       1.93420000       0.93600000
H       -1.01880000      -0.33240000       0.02590000
H        0.08960000      -1.05210000      -2.06290000
H        1.48290000       0.01120000      -1.72980000
H        0.67400000      -2.50120000      -0.15480000
H        3.40330000      -1.10780000      -0.38720000
H        3.07780000      -2.54920000       0.59130000
H        2.95010000      -2.64040000      -1.16950000
H       -0.44570000      -1.72650000       1.98550000
H        1.24490000      -1.78980000       2.50450000
