18
Properties=species:S:1:pos:R:3 gdb_47240=T pbc="F F F"
O        0.27790000      -0.02150000       0.00150000
C        0.03930000       1.16910000      -0.05210000
C       -1.39570000       1.69540000       0.06760000
C       -1.84380000       2.44590000       1.30090000
C       -1.20360000       3.14150000       2.25510000
C        0.20250000       3.49340000       2.45350000
C        1.15390000       3.69090000       1.53270000
C        0.94380000       3.49510000       0.05300000
N        1.02030000       2.08670000      -0.33790000
H       -1.62840000       2.30010000      -0.82070000
H       -2.01410000       0.79700000      -0.01290000
H       -2.92190000       2.37080000       1.43490000
H       -1.84530000       3.50690000       3.05590000
H        0.47290000       3.66160000       3.49440000
H        2.15340000       3.96360000       1.86130000
H       -0.03580000       3.88230000      -0.24110000
H        1.69200000       4.04410000      -0.52510000
H        1.94240000       1.66960000      -0.31910000
