20
Properties=species:S:1:pos:R:3 gdb_57436=T pbc="F F F"
C       -0.00840000       1.54810000      -0.04600000
C        0.02150000       0.02060000       0.07900000
C        0.66860000      -0.37930000       1.41330000
O       -1.34930000      -0.38030000       0.05300000
C        0.73540000      -0.54390000      -1.16340000
C        2.07410000      -1.21720000      -1.15270000
C        0.83130000      -2.03670000      -1.46840000
C        0.33460000      -3.01110000      -0.53990000
N       -0.09800000      -3.78740000       0.20320000
H        1.00470000       1.95410000      -0.12030000
H       -0.57130000       1.84140000      -0.93680000
H       -0.50030000       1.98620000       0.82630000
H        0.06050000       0.02490000       2.22700000
H        0.71950000      -1.46400000       1.54380000
H        1.67980000       0.02770000       1.50830000
H       -1.39210000      -1.32130000       0.26090000
H        0.51150000       0.03110000      -2.05740000
H        2.76350000      -1.04170000      -1.97070000
H        2.54730000      -1.40410000      -0.19670000
H        0.67820000      -2.32220000      -2.50370000
