18
Properties=species:S:1:pos:R:3 gdb_90829=T pbc="F F F"
O       -0.05200000       1.46440000      -0.01890000
C        0.03820000       0.04530000      -0.00620000
C        0.69340000      -0.55510000       1.28420000
N       -0.33970000      -1.34850000       1.97790000
C       -1.46960000      -0.52800000       2.45900000
C       -2.20530000       0.02130000       1.22290000
C       -2.50780000      -1.36000000       1.77580000
C       -1.29370000      -1.84020000       0.91940000
C       -1.37260000      -0.53750000       0.06180000
H        0.84100000       1.82010000      -0.05430000
H        0.56940000      -0.30520000      -0.90440000
H        1.53060000      -1.21550000       1.03070000
H        1.06800000       0.23510000       1.94240000
H       -1.47600000      -0.04580000       3.42830000
H       -2.80770000       0.91800000       1.25220000
H       -3.40710000      -1.83670000       2.13390000
H       -1.10910000      -2.82480000       0.49200000
H       -1.91040000      -0.61710000      -0.88280000
