19
Properties=species:S:1:pos:R:3 gdb_74918=T pbc="F F F"
C        0.03920000       1.50710000       0.06130000
C       -0.02490000       0.01060000      -0.02930000
C       -0.06200000      -0.69400000      -1.16960000
C       -0.05920000      -2.18680000      -0.99260000
C       -1.25870000      -2.59960000      -0.09810000
C       -0.75300000      -2.13470000       1.25330000
C        0.73570000      -2.14550000       1.11740000
O        1.09240000      -2.53860000      -0.17310000
C        0.00990000      -0.79400000       1.21350000
H        0.95040000       1.83440000       0.57770000
H        0.02760000       1.96720000      -0.93050000
H       -0.80670000       1.90770000       0.63390000
H       -0.05490000      -0.23960000      -2.15380000
H        0.02640000      -2.74450000      -1.92450000
H       -2.18590000      -2.12310000      -0.42510000
H       -1.39250000      -3.68610000      -0.09430000
H       -1.26480000      -2.41340000       2.16530000
H        1.44720000      -2.45740000       1.87060000
H        0.09080000      -0.26770000       2.15850000
