19
Properties=species:S:1:pos:R:3 gdb_115662=T pbc="F F F"
C        0.25270000       1.58420000      -0.09020000
C        0.15890000       0.13270000      -0.03030000
C        0.08240000      -1.06900000       0.01580000
C       -0.00280000      -2.51350000       0.08360000
C       -0.22750000      -3.18660000       1.46650000
O       -1.34320000      -3.95020000       0.96460000
C       -1.33730000      -3.22800000      -0.29510000
C       -2.59810000      -2.38750000      -0.40960000
O       -3.73600000      -3.22140000      -0.30530000
H        1.16300000       1.90360000      -0.60930000
H       -0.60190000       2.01510000      -0.62330000
H        0.27150000       2.02300000       0.91350000
H        0.84130000      -2.96740000      -0.44320000
H        0.58100000      -3.83140000       1.82600000
H       -0.52180000      -2.49020000       2.25980000
H       -1.27200000      -3.92650000      -1.13700000
H       -2.59390000      -1.60350000       0.36280000
H       -2.64120000      -1.89270000      -1.38560000
H       -3.60400000      -3.74170000       0.49740000
