17
Properties=species:S:1:pos:R:3 gdb_64583=T pbc="F F F"
O       -0.10040000       1.38880000       0.07450000
C       -0.08110000       0.00930000       0.03300000
C        1.04070000      -0.58630000       0.78110000
O        1.88080000       0.09980000       1.32370000
C       -1.38610000      -0.75880000      -0.02890000
C       -2.62290000       0.07060000      -0.38430000
C       -2.35600000       0.52530000      -1.80190000
C       -1.19930000       0.05310000      -2.27130000
C       -0.49180000      -0.76570000      -1.25120000
H        0.72310000       1.63090000       0.52850000
H        1.08450000      -1.69430000       0.80230000
H       -1.49790000      -1.63190000       0.60440000
H       -3.53550000      -0.53320000      -0.30770000
H       -2.74530000       0.92420000       0.29370000
H       -3.02220000       1.19630000      -2.33090000
H       -0.77830000       0.25760000      -3.24780000
H        0.10890000      -1.62170000      -1.53960000
