21
Properties=species:S:1:pos:R:3 gdb_119280=T pbc="F F F"
C        0.23510000       1.52470000       0.03030000
C        0.08610000       0.00060000       0.01670000
C        0.67680000      -0.63550000      -1.24680000
C        0.56050000      -2.17080000      -1.30450000
C        1.42360000      -2.81310000      -2.43960000
C        2.42840000      -3.19190000      -1.32570000
N        1.37640000      -2.92460000      -0.31740000
C       -0.85640000      -2.57070000      -1.29540000
N       -1.97200000      -2.87330000      -1.31090000
H        1.28830000       1.82330000      -0.01860000
H       -0.27780000       1.97850000      -0.82440000
H       -0.19140000       1.95460000       0.94130000
H        0.57470000      -0.41800000       0.90660000
H       -0.97340000      -0.26930000       0.09490000
H        0.18170000      -0.21920000      -2.13360000
H        1.74100000      -0.38040000      -1.33290000
H        0.94260000      -3.67550000      -2.90070000
H        1.76260000      -2.12360000      -3.21330000
H        2.79360000      -4.22300000      -1.31900000
H        3.29200000      -2.51570000      -1.28190000
H        1.65380000      -2.39710000       0.50330000
