23
Properties=species:S:1:pos:R:3 gdb_118058=T pbc="F F F"
C        0.05310000       1.56340000       0.04800000
C       -0.00050000       0.03400000       0.03450000
C       -1.42730000      -0.51390000      -0.04000000
O       -2.11000000      -0.08130000      -1.21700000
C       -1.46690000      -2.04440000       0.06240000
O       -0.85090000      -2.42190000       1.28140000
C       -2.89190000      -2.58730000       0.01190000
O       -2.79670000      -3.98530000       0.22920000
C       -4.04950000      -4.62250000       0.32660000
H        1.08640000       1.92270000       0.04070000
H       -0.46220000       1.98060000      -0.82170000
H       -0.43320000       1.96480000       0.94400000
H        0.56470000      -0.35540000      -0.82650000
H        0.47880000      -0.38020000       0.92630000
H       -2.01380000      -0.10470000       0.79260000
H       -1.56010000      -0.31600000      -1.97350000
H       -0.91080000      -2.46820000      -0.79510000
H       -1.11640000      -3.33780000       1.43250000
H       -3.49740000      -2.11940000       0.80590000
H       -3.36200000      -2.36490000      -0.95500000
H       -4.64720000      -4.21910000       1.15850000
H       -4.63230000      -4.51230000      -0.60040000
H       -3.86470000      -5.68480000       0.50400000
