20
Properties=species:S:1:pos:R:3 gdb_39829=T pbc="F F F"
C       -0.13240000       1.40030000       0.12960000
C        1.27170000       0.86990000      -0.03820000
C        0.11040000      -0.09090000       0.06160000
C        0.01380000      -0.77160000      -1.28930000
C       -0.37070000      -2.22660000      -1.38070000
C       -1.30850000      -1.16870000      -1.90560000
C        1.15760000      -0.23820000      -2.13050000
C        1.18200000       1.19510000      -2.52760000
N        1.92710000       0.74640000      -1.34340000
H       -0.36970000       1.81700000       1.10330000
H       -0.64600000       1.89160000      -0.68790000
H        1.97320000       1.00890000       0.77620000
H       -0.06510000      -0.69050000       0.94880000
H        0.15580000      -2.84690000      -2.09910000
H       -0.63810000      -2.73970000      -0.46270000
H       -2.21180000      -0.95930000      -1.34260000
H       -1.41810000      -1.07050000      -2.98060000
H        1.73660000      -0.96010000      -2.70370000
H        1.81110000       1.51450000      -3.35470000
H        0.27990000       1.78520000      -2.40540000
