21
Properties=species:S:1:pos:R:3 gdb_72396=T pbc="F F F"
C       -0.00970000       1.50270000       0.01870000
C       -0.00580000      -0.01580000       0.02860000
C        0.73020000      -0.68650000      -1.19020000
C        0.95680000      -2.14890000      -0.71310000
C        0.32010000      -2.14530000       0.72010000
O        0.73760000      -3.18010000       1.57480000
C        0.71320000      -0.73690000       1.19830000
C       -1.18030000      -1.95560000       0.51660000
C       -1.36880000      -0.70090000       0.10320000
H        1.01070000       1.90110000       0.00260000
H       -0.52970000       1.89080000      -0.86480000
H       -0.51340000       1.90480000       0.90410000
H        0.13600000      -0.62040000      -2.10550000
H        1.68180000      -0.17820000      -1.37820000
H        0.49000000      -2.89230000      -1.36610000
H        2.02060000      -2.39190000      -0.63020000
H        0.53490000      -4.02080000       1.15170000
H        1.79680000      -0.57640000       1.21180000
H        0.28740000      -0.49680000       2.17530000
H       -1.90960000      -2.75360000       0.59650000
H       -2.29350000      -0.24490000      -0.23240000
