19
Properties=species:S:1:pos:R:3 gdb_77473=T pbc="F F F"
C       -0.05690000       1.55960000      -0.05290000
C        0.14160000       0.05880000       0.04460000
C        1.40640000      -0.71800000      -0.20470000
O        1.57980000      -1.69590000      -1.16640000
C        2.63020000       0.01190000       0.32830000
C        2.00420000      -0.06300000       1.77050000
O        1.76930000       1.13050000       2.49360000
C        0.76540000      -0.72650000       1.19620000
O        0.08100000      -1.74840000       1.83490000
H        0.76320000       2.10620000       0.41370000
H       -0.13900000       1.87480000      -1.09950000
H       -0.97780000       1.86240000       0.45800000
H       -0.71410000      -0.51570000      -0.31840000
H        0.73100000      -2.12140000      -1.32810000
H        3.53970000      -0.58550000       0.23510000
H        2.81010000       1.01660000      -0.06380000
H        2.55380000      -0.78990000       2.38290000
H        2.60800000       1.43480000       2.85480000
H       -0.63260000      -1.35880000       2.35270000
