15
Properties=species:S:1:pos:R:3 gdb_70783=T pbc="F F F"
O       -0.04950000       1.33220000       0.09430000
C        0.06790000      -0.03200000       0.07120000
C        0.79320000      -0.97610000       1.05490000
C        0.10440000      -1.95220000       0.06750000
C        0.11380000      -3.37770000       0.06010000
C        0.12820000      -4.58060000       0.06260000
C       -1.13950000      -0.99630000      -0.11470000
O       -1.08270000      -1.00530000      -1.56460000
C        0.31110000      -0.98840000      -1.16180000
H        0.83000000       1.72450000       0.06430000
H        1.88660000      -0.97150000       1.03530000
H        0.42130000      -0.99260000       2.08230000
H        0.13680000      -5.64240000       0.05930000
H       -2.10710000      -1.02650000       0.38440000
H        1.08790000      -1.00860000      -1.92590000
