15
Properties=species:S:1:pos:R:3 gdb_29174=T pbc="F F F"
C       -0.02500000       1.48940000       0.07000000
C       -0.01060000       0.00360000      -0.00980000
C       -0.03150000      -0.79750000      -1.07590000
O       -0.00600000      -2.12620000      -0.70850000
C        0.03370000      -2.19040000       0.67130000
N        0.06580000      -3.23440000       1.37170000
N        0.03110000      -0.85210000       1.12390000
C        0.06100000      -0.42820000       2.45140000
O        0.09500000      -1.13990000       3.41690000
H        0.86870000       1.88330000       0.56720000
H       -0.05690000       1.90220000      -0.94080000
H       -0.89900000       1.86390000       0.61490000
H       -0.06340000      -0.58770000      -2.13110000
H        0.05820000      -4.05780000       0.77200000
H        0.04950000       0.67480000       2.50670000
