13
Properties=species:S:1:pos:R:3 gdb_26649=T pbc="F F F"
O        0.08800000       1.34880000       0.18560000
C        0.06500000       0.00430000       0.02590000
C        0.10220000      -0.79740000      -1.08370000
O        0.17430000      -0.32350000      -2.36060000
C        0.04580000      -2.15460000      -0.61900000
C       -0.02430000      -2.11710000       0.76490000
N       -0.01210000      -0.80280000       1.13470000
C        0.06380000      -3.28520000      -1.46290000
N        0.08380000      -4.16670000      -2.21680000
H        0.15080000       1.74600000      -0.69060000
H        0.22580000      -1.06880000      -2.96920000
H       -0.07930000      -2.91450000       1.48470000
H       -0.05190000      -0.45340000       2.07680000
