22
Properties=species:S:1:pos:R:3 gdb_103930=T pbc="F F F"
C        0.11060000       1.52890000      -0.04720000
C        0.01340000       0.00710000       0.10850000
C       -1.41210000      -0.52960000       0.02420000
O       -2.23300000      -0.05160000       1.07950000
C       -2.15120000      -0.46320000      -1.37360000
C       -2.31560000      -1.99110000      -1.31490000
C       -3.45260000      -2.79840000      -1.85730000
N       -0.92680000      -2.51960000      -1.26660000
C       -1.58760000      -2.05360000      -0.01950000
H        1.15240000       1.86020000      -0.00790000
H       -0.30650000       1.86350000      -1.00370000
H       -0.41950000       2.05670000       0.75480000
H        0.60340000      -0.48880000      -0.66780000
H        0.43290000      -0.29160000       1.07730000
H       -2.27980000       0.90740000       1.00650000
H       -3.09890000       0.07120000      -1.27480000
H       -1.58590000      -0.08570000      -2.23000000
H       -3.42950000      -2.83290000      -2.95320000
H       -3.41310000      -3.82980000      -1.48880000
H       -4.41530000      -2.37150000      -1.55670000
H       -0.99350000      -3.53790000      -1.26760000
H       -1.71400000      -2.70600000       0.83690000
