18
Properties=species:S:1:pos:R:3 gdb_102154=T pbc="F F F"
C        0.17180000       1.50430000       0.98390000
O        0.36000000       0.23830000       0.37570000
C       -0.80150000      -0.34360000      -0.14150000
C       -0.31520000      -1.55040000      -0.98320000
C       -1.32310000      -2.10730000      -1.87500000
C       -2.16180000      -2.54490000      -2.61850000
C       -1.77350000      -0.79000000       0.98000000
N       -3.02050000      -1.13700000       0.54210000
O       -1.45290000      -0.79460000       2.15060000
H        1.16470000       1.86920000       1.25540000
H       -0.28710000       2.21690000       0.28070000
H       -0.44590000       1.43020000       1.88420000
H       -1.33240000       0.36060000      -0.80430000
H        0.53900000      -1.19340000      -1.56850000
H        0.06900000      -2.32070000      -0.30460000
H       -2.87950000      -2.94950000      -3.28910000
H       -3.16910000      -1.36470000      -0.42980000
H       -3.62480000      -1.57650000       1.21990000
