14
Properties=species:S:1:pos:R:3 gdb_24455=T pbc="F F F"
C       -0.00300000       1.36910000       0.02410000
C        1.43850000       1.90790000       0.04070000
O        2.16110000       1.50410000       1.20800000
C        1.90890000       0.18670000       1.42990000
C        0.90650000      -0.50510000       0.84350000
O        0.94710000      -1.78600000       1.27860000
C        2.01610000      -1.78780000       2.13560000
N        2.61840000      -0.64670000       2.26040000
O       -0.03750000      -0.07370000      -0.00820000
H       -0.54140000       1.71480000       0.91480000
H       -0.52410000       1.70790000      -0.87300000
H        1.96700000       1.55600000      -0.85540000
H        1.42270000       3.00000000       0.04220000
H        2.24910000      -2.72830000       2.60530000
