21
Properties=species:S:1:pos:R:3 gdb_117785=T pbc="F F F"
C       -0.11860000       1.51460000      -0.22690000
C        0.12710000       0.03680000       0.03230000
O        0.53990000      -0.54650000      -1.19980000
C        0.68770000      -1.98180000      -1.25210000
C        1.46050000      -2.55840000      -0.05530000
C       -0.72640000      -2.60490000      -1.35400000
O       -1.48430000      -1.99770000      -2.37030000
C        1.43710000      -2.23970000      -2.48780000
C        2.06590000      -2.49310000      -3.47890000
H        0.78680000       1.98890000      -0.61500000
H       -0.91880000       1.65370000      -0.95960000
H       -0.40700000       2.01830000       0.70060000
H        0.90690000      -0.08810000       0.79580000
H       -0.78740000      -0.44020000       0.41330000
H        0.89760000      -2.44920000       0.87550000
H        1.64370000      -3.62290000      -0.22050000
H        2.42620000      -2.05800000       0.04930000
H       -0.63950000      -3.67160000      -1.58360000
H       -1.21900000      -2.51590000      -0.37110000
H       -1.21970000      -1.06830000      -2.37350000
H        2.61080000      -2.70710000      -4.36510000
