21
Properties=species:S:1:pos:R:3 gdb_113762=T pbc="F F F"
C        0.15270000       1.57700000       0.01920000
C       -0.39360000       0.19160000      -0.34930000
C        0.47940000      -0.50190000      -1.36710000
O        1.73140000      -1.03630000      -0.91350000
C        0.73360000      -1.95230000      -1.39690000
C        0.13680000      -2.93490000      -0.38620000
C        0.20500000      -4.37950000      -0.91130000
C        0.89920000      -2.84070000       0.93030000
O        0.42020000      -2.47780000       1.97260000
H        1.15380000       1.49140000       0.45160000
H        0.22050000       2.22580000      -0.86110000
H       -0.49300000       2.07040000       0.75090000
H       -0.48230000      -0.42310000       0.55070000
H       -1.40170000       0.28790000      -0.77450000
H        0.56630000       0.02390000      -2.32160000
H        0.98860000      -2.39410000      -2.36200000
H       -0.90380000      -2.67170000      -0.17190000
H        1.24310000      -4.69440000      -1.06530000
H       -0.26310000      -5.07700000      -0.21090000
H       -0.31510000      -4.46380000      -1.87030000
H        1.96020000      -3.16750000       0.86380000
