13
Properties=species:S:1:pos:R:3 gdb_19349=T pbc="F F F"
O       -0.15660000       0.03320000       0.09500000
C       -0.00750000       1.23020000       0.00210000
C        1.28840000       1.89910000       0.00940000
N        1.48060000       3.33120000       0.35800000
C        1.75140000       2.92350000      -1.00760000
C        3.14240000       2.19310000      -1.05670000
O        3.69680000       2.16930000       0.25330000
C        2.69210000       1.21270000      -0.07010000
H       -0.87450000       1.92270000      -0.11740000
H        0.55880000       3.77070000       0.38380000
H        1.20130000       3.30320000      -1.85920000
H        3.80420000       2.11710000      -1.90980000
H        2.89430000       0.15840000       0.05960000
