21
Properties=species:S:1:pos:R:3 gdb_58956=T pbc="F F F"
C        0.18150000       1.45570000       0.16720000
C       -0.09750000      -0.04190000      -0.01170000
O       -1.48700000      -0.29150000      -0.18070000
C        0.66950000      -0.60830000      -1.17120000
O        0.18400000      -0.20410000      -2.47160000
C        0.36740000      -1.56060000      -2.97030000
C        0.99320000      -2.00740000      -1.65740000
C        2.10050000      -1.04240000      -1.24850000
C        3.11920000      -0.43950000      -2.19000000
H        1.23360000       1.63460000       0.41170000
H       -0.05210000       1.99890000      -0.75440000
H       -0.44150000       1.85410000       0.97180000
H        0.19990000      -0.58190000       0.89530000
H       -1.68490000      -0.04290000      -1.09260000
H       -0.60290000      -2.02690000      -3.17070000
H        0.98410000      -1.58510000      -3.87600000
H        0.83790000      -2.96500000      -1.17870000
H        2.49230000      -1.31110000      -0.26830000
H        2.63670000      -0.03360000      -3.08220000
H        3.65340000       0.38350000      -1.70370000
H        3.86130000      -1.18170000      -2.50230000
