20
Properties=species:S:1:pos:R:3 gdb_95394=T pbc="F F F"
C       -0.21940000       1.49860000       0.05380000
C        0.04610000      -0.01280000      -0.02740000
N        0.75260000      -0.36920000      -1.26470000
C        2.16130000       0.02270000      -1.25980000
C        2.88470000      -0.24100000       0.03320000
C        2.26050000      -0.51600000       1.18970000
C        2.97150000      -0.82760000       2.47700000
C        0.77340000      -0.47670000       1.24120000
O        0.16230000      -0.74740000       2.25790000
H        0.71170000       2.07010000       0.12730000
H       -0.75560000       1.82750000      -0.84010000
H       -0.82100000       1.72360000       0.93800000
H       -0.91980000      -0.52740000      -0.03760000
H        0.70660000      -1.37730000      -1.37600000
H        2.66700000      -0.49840000      -2.08110000
H        2.24490000       1.09330000      -1.50510000
H        3.97320000      -0.18930000       0.00530000
H        4.05630000      -0.80750000       2.34560000
H        2.69440000      -0.11370000       3.25940000
H        2.67980000      -1.81470000       2.85020000
