13
Properties=species:S:1:pos:R:3 gdb_3089=T pbc="F F F"
O        0.07110000       1.32930000       0.35670000
C        0.03930000      -0.04640000       0.11910000
C       -0.39350000      -0.86020000       1.29980000
O       -0.66700000      -0.19670000       2.47680000
C       -1.33460000      -0.73040000       0.08170000
C       -2.48210000       0.11650000       0.13460000
C       -3.40270000       0.89320000       0.16160000
H       -0.72110000       1.72410000      -0.03410000
H        0.81110000      -0.40140000      -0.55910000
H        0.03870000      -1.84360000       1.45660000
H       -0.49090000       0.73980000       2.29870000
H       -1.41300000      -1.60750000      -0.55380000
H       -4.24630000       1.53650000       0.20890000
