15
Properties=species:S:1:pos:R:3 gdb_62330=T pbc="F F F"
O        0.08680000       1.44290000      -0.03070000
C       -0.02330000       0.06170000       0.03090000
C        1.03530000      -0.57220000      -0.72810000
C        1.90580000      -1.11580000      -1.35240000
C       -0.42230000      -0.76430000       1.25130000
C       -1.61370000      -0.16680000       2.05140000
O       -2.03180000       1.08850000       1.46890000
C       -2.45780000      -0.15260000       0.86230000
C       -1.31620000      -0.74920000      -0.00800000
H       -0.65040000       1.78430000       0.49680000
H        2.68130000      -1.58180000      -1.90830000
H        0.19540000      -1.56720000       1.63150000
H       -1.83500000      -0.31780000       3.10030000
H       -3.52260000      -0.28940000       0.72290000
H       -1.48040000      -1.53890000      -0.72920000
