14
Properties=species:S:1:pos:R:3 gdb_98949=T pbc="F F F"
O        0.23640000       1.28920000       0.00880000
C       -0.01310000      -0.08690000       0.00150000
C       -1.53150000      -0.30400000       0.01530000
O       -2.33960000       0.57900000       0.02750000
N       -1.84520000      -1.67560000       0.01100000
C       -3.11550000      -2.25940000       0.01960000
O       -4.15980000      -1.66090000       0.03240000
C       -3.03410000      -3.71620000       0.01100000
C       -2.99620000      -4.91800000       0.00420000
H        1.18870000       1.42190000      -0.00550000
H        0.39310000      -0.59020000      -0.89350000
H        0.41120000      -0.60280000       0.88080000
H       -1.07350000      -2.32750000       0.00050000
H       -2.98260000      -5.98120000      -0.00160000
