17
Properties=species:S:1:pos:R:3 gdb_121583=T pbc="F F F"
C        0.04500000       1.36190000       0.34680000
C        0.02660000      -0.14420000       0.29570000
O        1.00460000      -0.84620000       0.30200000
C       -1.39210000      -0.76270000       0.24380000
O       -2.39980000      -0.10360000       0.30570000
O       -1.34130000      -2.08970000       0.12780000
C       -2.60700000      -2.78720000       0.11750000
C       -2.26860000      -4.25940000      -0.03670000
O       -1.47920000      -4.73600000       1.03190000
H        1.07540000       1.71420000       0.39400000
H       -0.45960000       1.77300000      -0.53380000
H       -0.52260000       1.71420000       1.21380000
H       -3.12300000      -2.59160000       1.06210000
H       -3.22400000      -2.41370000      -0.70590000
H       -3.19780000      -4.83850000      -0.03240000
H       -1.77860000      -4.41870000      -1.00970000
H       -0.67470000      -4.20480000       1.04330000
