19
Properties=species:S:1:pos:R:3 gdb_10071=T pbc="F F F"
C       -0.12170000       1.54630000       0.05520000
C        0.08380000       0.02890000       0.00080000
C        0.80230000      -0.46650000      -1.26940000
C        2.30810000      -0.12960000      -1.24950000
O        2.90650000      -0.08910000      -2.52770000
C        0.54920000      -1.98850000      -1.42130000
C        1.24980000      -2.60590000      -2.54600000
N        1.82850000      -3.08130000      -3.42750000
H        0.82500000       2.09400000       0.03650000
H       -0.72060000       1.89150000      -0.79420000
H       -0.64680000       1.83190000       0.97160000
H        0.64790000      -0.30320000       0.88370000
H       -0.89560000      -0.46100000       0.07060000
H        0.37710000       0.03940000      -2.14460000
H        2.44470000       0.87230000      -0.83250000
H        2.82930000      -0.82820000      -0.57220000
H        2.94520000      -0.98210000      -2.88770000
H        0.86390000      -2.50630000      -0.50600000
H       -0.52290000      -2.18170000      -1.53850000
