16
Properties=species:S:1:pos:R:3 gdb_41013=T pbc="F F F"
C       -0.04860000       1.50350000       0.21520000
N        1.44930000       1.50740000      -0.01150000
C        1.25250000       0.33000000      -0.84660000
C        0.03260000      -0.03660000      -0.06240000
O       -0.69380000      -0.88590000      -0.95290000
C        0.27640000      -1.05910000      -1.97460000
C        0.84330000       0.29930000      -2.38630000
O        2.12740000      -0.28960000      -2.76810000
C        1.83190000      -0.94590000      -1.50250000
H       -0.34960000       1.82470000       1.21430000
H       -0.61480000       2.04620000      -0.55070000
H        1.82330000       2.32260000      -0.48680000
H        0.22880000      -0.56970000       0.87240000
H       -0.00300000      -1.81290000      -2.70660000
H        0.41590000       1.07160000      -3.02580000
H        2.52160000      -1.70650000      -1.13780000
