14
Properties=species:S:1:pos:R:3 gdb_126495=T pbc="F F F"
C        0.09500000       1.54510000       0.00790000
C       -0.03420000       0.02310000       0.00330000
C       -1.44270000      -0.49570000       0.01300000
N       -2.42660000       0.34380000       0.02480000
O       -3.69510000      -0.14560000       0.03340000
N       -3.97390000      -1.56200000       0.02980000
N       -3.04180000      -2.36040000       0.01870000
C       -1.66400000      -1.94170000       0.00910000
O       -0.79390000      -2.77510000      -0.00190000
H        1.15110000       1.82590000       0.00020000
H       -0.38560000       1.98890000      -0.86780000
H       -0.37100000       1.98240000       0.89470000
H        0.46650000      -0.41600000      -0.86950000
H        0.48080000      -0.42230000       0.86450000
