17
Properties=species:S:1:pos:R:3 gdb_75967=T pbc="F F F"
C       -0.17830000       1.43190000      -0.01930000
N       -0.07490000      -0.03030000       0.00210000
C        0.05540000      -0.66930000      -1.23930000
N        0.19630000       0.01910000      -2.29420000
O        0.04100000      -2.02640000      -1.24940000
C       -0.48860000      -2.70130000      -0.10360000
C        0.18700000      -2.17940000       1.14890000
C        0.03900000      -0.67250000       1.23210000
O        0.01720000      -0.07040000       2.28340000
H        0.73910000       1.87110000      -0.41710000
H       -1.00530000       1.72920000      -0.66520000
H       -0.34340000       1.75920000       1.00460000
H        0.23330000      -0.59900000      -3.10260000
H       -1.57530000      -2.55130000      -0.05890000
H       -0.29260000      -3.76140000      -0.27330000
H       -0.23730000      -2.60920000       2.05840000
H        1.25560000      -2.42430000       1.12820000
