17
Properties=species:S:1:pos:R:3 gdb_23559=T pbc="F F F"
O       -0.14500000       1.34400000       0.07900000
N        0.02470000      -0.04940000      -0.04250000
C       -1.09410000      -0.64110000      -0.08870000
C       -2.53510000      -0.28670000       0.03530000
C       -3.32020000      -1.01220000      -1.00010000
N       -2.89500000      -1.77360000       0.18080000
C       -1.45110000      -2.08780000      -0.05740000
C       -0.94860000      -3.26020000      -0.84610000
C       -0.74250000      -3.19770000       0.65100000
H        0.76510000       1.65530000       0.12580000
H       -2.95590000       0.48150000       0.67170000
H       -4.38850000      -0.81720000      -1.02280000
H       -2.86900000      -1.23480000      -1.96370000
H       -1.69250000      -3.95390000      -1.22380000
H       -0.09480000      -3.10120000      -1.49550000
H        0.25050000      -2.98780000       1.03250000
H       -1.35560000      -3.84190000       1.27130000
