20
Properties=species:S:1:pos:R:3 gdb_12556=T pbc="F F F"
O       -0.18760000       1.51380000      -0.18100000
C       -0.02130000       0.10680000      -0.02170000
C       -1.43100000      -0.49250000       0.05220000
C       -1.48220000      -1.91750000       0.62000000
C       -0.81030000      -3.01410000      -0.22040000
C        0.71830000      -2.87730000      -0.37620000
C        1.15710000      -1.75040000      -1.28270000
C        0.82430000      -0.46930000      -1.13720000
H        0.68780000       1.91160000      -0.22290000
H        0.47590000      -0.09850000       0.94470000
H       -2.02190000       0.16900000       0.69540000
H       -1.88480000      -0.45810000      -0.94520000
H       -1.03290000      -1.91600000       1.62370000
H       -2.53430000      -2.18990000       0.76440000
H       -1.02130000      -3.98120000       0.25220000
H       -1.26820000      -3.04830000      -1.21700000
H        1.16330000      -2.75030000       0.62260000
H        1.11820000      -3.82040000      -0.76230000
H        1.78110000      -2.02480000      -2.13010000
H        1.16600000       0.25950000      -1.87010000
