20
Properties=species:S:1:pos:R:3 gdb_107130=T pbc="F F F"
C       -0.32610000       1.53600000      -0.12480000
C        0.07190000       0.06580000       0.07220000
C        0.82200000      -0.49670000      -1.09650000
N        0.18940000      -0.87170000      -2.38420000
C        0.97650000      -1.87370000      -1.61740000
C        2.50850000      -1.60690000      -1.88460000
C        3.60750000      -2.61290000      -1.81190000
O        2.62120000      -0.49630000      -2.77690000
C        2.35040000      -0.23490000      -1.39750000
H        0.55580000       2.16460000      -0.28550000
H       -0.97640000       1.65330000      -0.99700000
H       -0.85690000       1.91930000       0.75170000
H        0.69010000      -0.03040000       0.97500000
H       -0.82330000      -0.54440000       0.24990000
H       -0.79200000      -1.06340000      -2.17290000
H        0.54170000      -2.80310000      -1.27050000
H        3.56950000      -3.29260000      -2.67090000
H        4.58060000      -2.11470000      -1.81170000
H        3.52170000      -3.21680000      -0.90210000
H        3.02120000       0.42640000      -0.85970000
