13
Properties=species:S:1:pos:R:3 gdb_16270=T pbc="F F F"
N        0.16170000       1.23830000      -0.04480000
C        0.02550000      -0.00090000       0.05220000
O        0.98250000      -1.02290000       0.08920000
C       -0.05740000      -2.01940000       0.00210000
C       -0.92820000      -1.97390000       1.18170000
C       -1.14500000      -0.92670000       0.06960000
C       -2.41180000      -0.82520000      -0.67700000
O       -3.25560000      -1.69090000      -0.68240000
H        1.14510000       1.51070000      -0.07910000
H        0.06310000      -2.81480000      -0.72020000
H       -1.73790000      -2.69670000       1.20820000
H       -0.52800000      -1.64920000       2.13620000
H       -2.52940000       0.11360000      -1.25520000
