16
Properties=species:S:1:pos:R:3 gdb_88053=T pbc="F F F"
O        0.01650000       1.34700000      -0.00880000
C        0.06450000      -0.03530000       0.11990000
C       -0.52240000      -0.70080000       1.36380000
C       -1.23760000      -0.76450000       0.05560000
O       -2.41280000       0.01500000      -0.19410000
C       -2.84360000      -0.91250000      -1.21760000
C       -1.72030000      -1.91760000      -0.83320000
C       -0.83050000      -2.38460000      -1.88140000
N       -0.11420000      -2.74780000      -2.71260000
H       -0.88700000       1.57110000      -0.27430000
H        0.94780000      -0.48230000      -0.32910000
H       -0.04990000      -1.60270000       1.74040000
H       -0.95050000      -0.04540000       2.11550000
H       -3.86650000      -1.25640000      -1.04850000
H       -2.74370000      -0.49330000      -2.22320000
H       -2.09660000      -2.76830000      -0.25930000
