15
Properties=species:S:1:pos:R:3 gdb_67591=T pbc="F F F"
O        0.05260000       1.38800000       0.18820000
C        0.00070000       0.02480000       0.02990000
C        1.02740000      -0.86650000      -0.63390000
O        0.44740000      -1.85400000      -1.44400000
C       -0.74800000      -2.10050000      -0.75260000
C       -0.58180000      -1.93540000       0.76300000
C        0.67950000      -1.05860000       0.84740000
C       -1.28700000      -0.87030000      -0.05620000
O       -2.59300000      -0.45090000       0.01110000
H        0.05380000       1.80140000      -0.68260000
H        1.99500000      -0.51250000      -0.96490000
H       -1.38230000      -2.86010000      -1.19080000
H       -0.95440000      -2.63770000       1.49430000
H        1.39840000      -1.00210000       1.65160000
H       -2.90180000      -0.25420000      -0.88060000
