10
Properties=species:S:1:pos:R:3 gdb_35165=T pbc="F F F"
N       -0.11690000      -1.15250000       0.01410000
C       -0.03910000      -0.00040000       0.01640000
C        0.01600000       1.44280000      -0.00870000
O        0.53080000       2.10270000       1.13900000
C        1.33140000       2.16320000      -0.03880000
C        2.57510000       1.41890000      -0.01630000
N        3.57050000       0.83460000      -0.01070000
C        1.39030000       3.45230000      -0.70290000
N        1.42250000       4.47300000      -1.24140000
H       -0.82710000       1.93430000      -0.49000000
