18
Properties=species:S:1:pos:R:3 gdb_65720=T pbc="F F F"
C       -0.00600000       1.62250000       0.12740000
C        0.00950000       0.10900000       0.00990000
C        1.05400000      -0.56480000      -0.96850000
C        1.65390000      -1.28040000       0.24720000
O        2.05330000      -0.26390000       1.17920000
C        0.68430000      -0.66690000       1.16290000
O       -1.30760000      -0.43500000      -0.12560000
C       -1.96660000      -0.21610000      -1.28100000
N       -3.15620000      -0.61910000      -1.40960000
H        0.99250000       1.97400000       0.39650000
H       -0.29570000       2.09850000      -0.81480000
H       -0.71520000       1.93290000       0.90070000
H        0.56290000      -1.24710000      -1.66510000
H        1.73320000       0.10010000      -1.50710000
H        2.17070000      -2.23070000       0.29880000
H        0.22900000      -1.01160000       2.08360000
H       -1.37470000       0.30870000      -2.04130000
H       -3.50140000      -0.38640000      -2.33860000
