17
Properties=species:S:1:pos:R:3 gdb_29517=T pbc="F F F"
C       -0.05940000       1.53740000       0.00470000
C       -0.00260000       0.04320000       0.03450000
C        0.13810000      -0.81160000      -1.02860000
O        0.15060000      -2.12990000      -0.65280000
C        0.02500000      -2.10830000       0.69810000
C       -0.07810000      -0.84580000       1.15240000
O       -0.26930000      -0.73910000       2.49830000
C       -0.12130000      -2.10590000       2.99580000
C       -0.15700000      -3.10990000       1.78440000
H        0.74850000       1.98100000       0.59720000
H        0.02890000       1.91280000      -1.01850000
H       -1.00220000       1.91070000       0.41970000
H        0.25520000      -0.63060000      -2.08480000
H        0.84340000      -2.16500000       3.51040000
H       -0.92060000      -2.27980000       3.71850000
H       -1.11030000      -3.65170000       1.72180000
H        0.63900000      -3.85650000       1.87490000
