18
Properties=species:S:1:pos:R:3 gdb_19555=T pbc="F F F"
O        0.61730000       0.08540000       0.84750000
C       -0.14620000       0.43030000      -0.30200000
C       -1.47470000      -0.23140000      -0.17370000
C       -2.42660000      -0.37950000       0.98640000
C       -3.59980000       0.15230000       0.16720000
C       -2.77820000      -0.26650000      -1.08400000
C       -2.73050000      -1.81800000      -1.00170000
C       -1.87880000      -1.62110000       0.24980000
H        1.47710000       0.50900000       0.77140000
H       -0.27240000       1.52380000      -0.38100000
H        0.35620000       0.09750000      -1.22650000
H       -2.20570000      -0.22280000       2.03390000
H       -4.59060000      -0.30180000       0.29100000
H       -3.68350000       1.23970000       0.25270000
H       -2.91440000       0.23960000      -2.03830000
H       -3.68900000      -2.34520000      -0.92140000
H       -2.14370000      -2.25010000      -1.81770000
H       -1.26930000      -2.34450000       0.77510000
