23
Properties=species:S:1:pos:R:3 gdb_113040=T pbc="F F F"
C        0.01140000       1.43800000       0.24190000
C       -0.12690000      -0.06290000      -0.03310000
C        0.66880000      -0.52820000      -1.24550000
C        2.22460000      -0.53830000      -1.17370000
C        2.21360000      -1.87330000      -1.96650000
C        3.21730000      -2.96160000      -1.56940000
C        3.01800000      -4.21140000      -2.29480000
C        2.82900000      -5.22750000      -2.90910000
C        0.72120000      -2.04630000      -1.57650000
H        1.05670000       1.71410000       0.41850000
H       -0.34690000       2.03000000      -0.60780000
H       -0.56470000       1.73790000       1.12280000
H        0.20070000      -0.63060000       0.84870000
H       -1.18610000      -0.31400000      -0.18000000
H        0.34720000       0.03280000      -2.13180000
H        2.77230000       0.30550000      -1.60060000
H        2.56930000      -0.69170000      -0.14370000
H        2.30190000      -1.67990000      -3.04030000
H        4.23940000      -2.59740000      -1.74080000
H        3.13800000      -3.14870000      -0.48980000
H        2.67180000      -6.13050000      -3.44470000
H        0.61710000      -2.65260000      -0.66900000
H        0.03560000      -2.43550000      -2.33250000
