23
Properties=species:S:1:pos:R:3 gdb_73083=T pbc="F F F"
C       -0.00360000       1.52680000      -0.03100000
C       -0.02960000       0.00260000       0.00570000
C       -1.34210000      -0.65660000       0.53310000
C       -0.49370000      -1.62770000       1.39760000
C        0.73010000      -0.67600000       1.19280000
C        2.08630000      -1.23380000       0.90520000
C        2.65360000      -1.16680000      -0.30020000
C        1.95680000      -0.57630000      -1.50070000
C        0.42890000      -0.60720000      -1.33150000
H        0.99600000       1.91060000      -0.26530000
H       -0.69350000       1.91320000      -0.79120000
H       -0.30050000       1.94980000       0.93490000
H       -1.92280000       0.03680000       1.14890000
H       -2.00930000      -1.09680000      -0.21350000
H       -0.82350000      -1.80090000       2.42450000
H       -0.33960000      -2.59630000       0.91540000
H        0.78930000       0.01690000       2.04200000
H        2.62300000      -1.69250000       1.73390000
H        3.65820000      -1.55620000      -0.44830000
H        2.30770000       0.45200000      -1.67350000
H        2.23910000      -1.13210000      -2.40310000
H        0.10810000      -1.65460000      -1.38050000
H       -0.06300000      -0.09050000      -2.16480000
