21
Properties=species:S:1:pos:R:3 gdb_41145=T pbc="F F F"
C       -0.00500000       1.57080000      -0.11610000
C        1.55660000       1.48950000       0.01360000
C        1.34330000       0.19130000       0.81850000
C        2.02030000      -1.18170000       1.04430000
C        1.03690000      -1.29070000       2.26870000
C        1.14630000       0.26110000       2.35380000
C       -0.39580000      -1.58400000       1.84610000
C       -0.94890000      -0.87350000       0.85550000
C       -0.01470000       0.02630000       0.10270000
H       -0.44710000       2.11620000       0.72150000
H       -0.42090000       1.95300000      -1.05080000
H        2.02230000       1.31080000      -0.96110000
H        2.07600000       2.31220000       0.51170000
H        1.93410000      -1.92230000       0.24410000
H        3.05860000      -1.11900000       1.38480000
H        1.35500000      -1.89060000       3.12240000
H        2.07040000       0.58610000       2.84340000
H        0.29130000       0.80280000       2.76460000
H       -0.96300000      -2.32290000       2.40490000
H       -1.97920000      -1.01590000       0.54130000
H        0.17490000      -0.41850000      -0.88670000
