16
Properties=species:S:1:pos:R:3 gdb_78124=T pbc="F F F"
C       -0.08510000       1.56900000      -0.00870000
C        0.06820000       0.06360000      -0.06780000
C        0.58880000      -0.72180000      -1.22940000
N        1.30850000      -0.69210000       0.13180000
C        2.43750000       0.13050000      -0.47480000
C        3.72200000      -0.52700000      -0.39570000
C        4.79530000      -1.06580000      -0.36530000
C        1.74300000      -0.02210000      -1.87230000
O        2.10260000       0.14600000      -2.99730000
H        0.61010000       2.11090000      -0.65170000
H       -1.09720000       1.83530000      -0.32820000
H        0.04260000       1.92450000       1.01930000
H       -0.74470000      -0.45750000       0.43620000
H        0.08260000      -1.59690000      -1.62160000
H        2.49630000       1.14480000      -0.07050000
H        5.74380000      -1.54240000      -0.33050000
