18
Properties=species:S:1:pos:R:3 gdb_79918=T pbc="F F F"
C        0.03000000       1.48600000      -0.16830000
N        0.00890000       0.02840000      -0.01720000
C       -1.14590000      -0.51200000       0.78910000
C       -0.79380000      -1.97840000       0.83440000
C        0.53810000      -1.98530000       1.03790000
C        1.49820000      -3.10260000       1.25560000
C        0.87300000      -0.50760000       1.09450000
C       -0.30830000      -0.03500000       2.05640000
O       -0.45820000       0.57720000       3.06000000
H        0.98990000       1.77730000      -0.60470000
H       -0.75850000       1.77410000      -0.86970000
H       -0.11240000       2.05420000       0.76580000
H       -2.15310000      -0.17730000       0.54970000
H       -1.48730000      -2.80560000       0.79330000
H        0.98990000      -4.07030000       1.23050000
H        2.28430000      -3.10960000       0.49070000
H        2.00240000      -3.01030000       2.22570000
H        1.90490000      -0.16810000       1.16670000
