15
Properties=species:S:1:pos:R:3 gdb_42726=T pbc="F F F"
O       -0.04690000       0.00400000      -0.01940000
C       -0.02480000       1.19740000       0.04460000
C       -1.11490000       2.29870000      -0.00640000
C       -1.27400000       2.71770000       1.43420000
C       -0.16340000       3.18900000       2.00860000
C        0.97260000       3.39460000       1.03920000
O        0.45260000       4.33390000       0.02870000
C        0.02430000       3.20550000      -0.71100000
C        1.06470000       2.24880000      -0.05380000
H       -2.04060000       2.08880000      -0.53940000
H       -2.22310000       2.59340000       1.94200000
H       -0.09460000       3.52350000       3.03620000
H        1.91370000       3.73910000       1.46690000
H       -0.10410000       3.38910000      -1.77720000
H        2.05700000       2.02180000      -0.43860000
