20
Properties=species:S:1:pos:R:3 gdb_79812=T pbc="F F F"
C       -0.06660000       1.50660000       0.02210000
C       -0.02680000      -0.00820000       0.02760000
C       -1.38350000      -0.72160000      -0.04040000
C       -1.03990000      -2.17050000       0.38970000
N        0.31880000      -2.14200000       0.97850000
C        1.41480000      -1.64100000       0.13160000
C        0.74160000      -0.76660000       1.15180000
C        0.96440000      -0.70150000      -0.98500000
O        0.51000000      -1.19160000      -2.22630000
H        0.93750000       1.93310000       0.12020000
H       -0.49700000       1.88360000      -0.91200000
H       -0.67560000       1.89130000       0.84850000
H       -2.09800000      -0.26110000       0.65040000
H       -1.80920000      -0.66840000      -1.04690000
H       -1.72710000      -2.54130000       1.15600000
H       -1.07230000      -2.89210000      -0.43490000
H        2.35640000      -2.17840000       0.17970000
H        1.09460000      -0.39300000       2.10560000
H        1.77600000      -0.00660000      -1.22300000
H        0.00900000      -1.99820000      -2.07540000
