21
Properties=species:S:1:pos:R:3 gdb_70677=T pbc="F F F"
C        0.03620000       1.53100000       0.03540000
C        0.03200000       0.01360000       0.04840000
C       -0.90410000      -0.58230000      -0.98980000
C       -0.95840000      -2.06270000      -1.26080000
C       -0.48130000      -3.11280000      -0.59480000
C        0.28600000      -3.16520000       0.69700000
C       -0.01220000      -2.05690000       1.71280000
C        0.43160000      -0.67150000       1.28680000
O        1.34200000      -0.56650000       0.18040000
H        0.73790000       1.92050000       0.77650000
H        0.33780000       1.90640000      -0.94880000
H       -0.96060000       1.92950000       0.25450000
H       -1.92040000      -0.22920000      -0.75250000
H       -0.66980000      -0.09110000      -1.94620000
H       -1.49130000      -2.28130000      -2.18560000
H       -0.65310000      -4.08670000      -1.05060000
H        0.08300000      -4.12920000       1.17840000
H        1.36150000      -3.15900000       0.47640000
H       -1.08480000      -2.03590000       1.94550000
H        0.50000000      -2.30390000       2.65050000
H        0.69470000      -0.01810000       2.12200000
