11
Properties=species:S:1:pos:R:3 gdb_2497=T pbc="F F F"
O       -0.01820000       0.00770000      -0.32560000
C        0.02450000       1.14720000       0.03890000
C        1.33170000       1.97620000       0.06430000
C        1.39160000       2.82230000      -1.23050000
O        2.00240000       2.48410000      -2.20300000
C        1.36520000       2.83550000       1.23480000
C        1.34400000       3.57200000       2.18430000
H       -0.87200000       1.70260000       0.38370000
H        2.16370000       1.26820000       0.02600000
H        0.81460000       3.76870000      -1.18160000
H        1.34790000       4.21140000       3.03290000
