19
Properties=species:S:1:pos:R:3 gdb_73433=T pbc="F F F"
C       -0.04800000       1.43540000       0.00790000
C        0.01860000      -0.07260000      -0.00850000
O       -1.13470000      -0.55710000      -0.64070000
C       -1.26180000      -1.96800000      -0.75710000
C       -0.10110000      -2.72700000      -0.16380000
C        1.31890000      -2.23340000      -0.25070000
C        0.60370000      -2.27950000       1.08950000
C        0.65740000      -0.73290000       1.18320000
C        1.38240000      -0.68610000      -0.17530000
H        0.83500000       1.85930000       0.49360000
H       -0.10490000       1.82230000      -1.01400000
H       -0.93880000       1.76850000       0.54900000
H       -2.19720000      -2.26890000      -0.26190000
H       -1.36340000      -2.21510000      -1.82440000
H       -0.20040000      -3.80590000      -0.25390000
H        2.13400000      -2.84920000      -0.60780000
H        0.77900000      -2.93660000       1.93120000
H        0.88780000      -0.19970000       2.09790000
H        2.25470000      -0.11150000      -0.46340000
