17
Properties=species:S:1:pos:R:3 gdb_28797=T pbc="F F F"
O        0.04670000       1.32070000       0.27060000
C        0.04140000      -0.02170000       0.04420000
C        0.01810000      -0.79500000      -1.09270000
C       -0.01140000      -2.17660000      -0.67630000
C        0.01120000      -2.16680000       0.68930000
N        0.04590000      -3.06070000       1.78780000
C       -0.19860000      -2.20410000       2.97170000
C        0.18220000      -0.74980000       2.56240000
N        0.02550000      -0.85490000       1.12670000
H       -0.03160000       1.76590000      -0.57840000
H       -0.01530000      -0.42790000      -2.10750000
H       -0.04400000      -3.04140000      -1.31900000
H        0.94650000      -3.52480000       1.85810000
H       -1.26560000      -2.23920000       3.21660000
H        0.36160000      -2.56220000       3.83730000
H       -0.48890000      -0.00610000       2.99870000
H        1.21380000      -0.48710000       2.83310000
