17
Properties=species:S:1:pos:R:3 gdb_45291=T pbc="F F F"
O       -0.18860000       0.07890000       0.04660000
C       -0.03070000       1.25570000      -0.01220000
O       -1.01110000       2.24090000       0.03750000
C       -0.04550000       3.31020000      -0.20930000
C        0.40560000       4.02580000       1.08330000
C        1.56860000       3.01040000       1.20280000
C        2.88020000       3.34250000       0.42030000
C        2.48920000       2.32850000      -0.70190000
C        1.08950000       2.25710000      -0.10720000
H       -0.30530000       3.86710000      -1.10970000
H        0.71710000       5.06530000       0.94840000
H       -0.34580000       3.97990000       1.87460000
H        1.70510000       2.47590000       2.14240000
H        2.92190000       4.38080000       0.07990000
H        3.80670000       3.11900000       0.95170000
H        2.57460000       2.65220000      -1.74230000
H        3.01250000       1.37490000      -0.59020000
