20
Properties=species:S:1:pos:R:3 gdb_40780=T pbc="F F F"
C        0.87940000       1.55540000       0.30170000
C        0.92380000       0.35150000      -0.60420000
C       -0.27630000       0.59140000       0.27970000
C       -0.52470000      -0.31260000       1.45620000
O       -1.22200000       0.42270000       2.46970000
C       -2.09430000      -0.43520000       3.19460000
C       -2.39950000      -1.59190000       2.26630000
N       -2.81290000      -1.13500000       0.92250000
C       -1.40730000      -1.51850000       1.17460000
H        1.51960000       1.55560000       1.17780000
H        0.73710000       2.53340000      -0.14380000
H        0.80900000       0.49920000      -1.67210000
H        1.60100000      -0.45530000      -0.34080000
H       -1.19050000       0.92160000      -0.20190000
H        0.44150000      -0.67750000       1.84950000
H       -1.61690000      -0.81590000       4.11280000
H       -2.97660000       0.14950000       3.47580000
H       -2.77230000      -2.53040000       2.66240000
H       -3.28120000      -1.90080000       0.44350000
H       -0.98650000      -2.39620000       0.69660000
