20
Properties=species:S:1:pos:R:3 gdb_52620=T pbc="F F F"
C        0.00490000       1.46650000       0.06310000
C        0.01010000       0.01090000       0.01890000
C        0.01060000      -1.19270000      -0.02540000
C        0.01520000      -2.65890000      -0.07160000
C       -1.43340000      -3.18680000      -0.16040000
C        0.83200000      -3.14420000      -1.28900000
C        0.68390000      -3.15820000       1.25210000
C        0.76040000      -4.61440000       1.35050000
N        0.81490000      -5.76720000       1.41650000
H        0.55620000       1.89180000      -0.78260000
H       -1.01610000       1.86170000       0.02650000
H        0.47100000       1.83760000       0.98250000
H       -1.91030000      -2.82510000      -1.07480000
H       -1.44210000      -4.28080000      -0.17300000
H       -2.02850000      -2.84310000       0.69050000
H        1.85890000      -2.77010000      -1.24610000
H        0.86010000      -4.23760000      -1.31990000
H        0.37840000      -2.78210000      -2.21500000
H        1.69620000      -2.74790000       1.32570000
H        0.12110000      -2.77750000       2.11040000
