21
Properties=species:S:1:pos:R:3 gdb_95679=T pbc="F F F"
C        0.60310000       1.65810000       0.02940000
C        0.01730000       0.25030000       0.02040000
C        0.23660000      -0.44710000      -1.32920000
C       -0.31300000      -1.88800000      -1.42480000
C        0.55280000      -2.88910000      -0.67180000
O        1.26070000      -3.67170000      -1.26250000
C        0.52080000      -2.88350000       0.85720000
C       -0.04030000      -1.62710000       1.52290000
O        0.61640000      -0.44240000       1.11040000
H        1.68550000       1.61990000      -0.12820000
H        0.15900000       2.26910000      -0.76170000
H        0.41530000       2.13990000       0.99210000
H       -1.07060000       0.31150000       0.20190000
H       -0.25240000       0.15770000      -2.10170000
H        1.30830000      -0.45110000      -1.56270000
H       -1.34320000      -1.91570000      -1.04500000
H       -0.32700000      -2.20940000      -2.46890000
H       -0.07460000      -3.75340000       1.16920000
H        1.54330000      -3.07560000       1.19650000
H       -1.12420000      -1.54250000       1.35030000
H        0.10600000      -1.70550000       2.60620000
