15
Properties=species:S:1:pos:R:3 gdb_48518=T pbc="F F F"
O       -0.85930000       1.33820000      -0.32070000
C        0.21540000       0.92500000       0.05300000
C        1.42820000       1.75290000       0.13620000
C        1.35050000       3.30120000       0.19910000
C        2.69750000       3.78740000       0.74340000
C        3.33960000       2.71700000      -0.19410000
C        1.97680000       2.70610000      -0.99630000
C        2.85490000       1.38660000       0.41270000
O        3.39850000       0.37430000       0.75380000
H        0.36040000      -0.13270000       0.35500000
H        0.36310000       3.73530000       0.28990000
H        2.91170000       4.80290000       0.40210000
H        2.89710000       3.69880000       1.81570000
H        4.34070000       2.81890000      -0.60220000
H        1.71430000       2.62380000      -2.03970000
