16
Properties=species:S:1:pos:R:3 gdb_27974=T pbc="F F F"
C        0.01810000       1.50550000      -0.00680000
C       -0.04260000       0.01950000      -0.00680000
C       -1.08520000      -0.82040000       0.07390000
N       -0.60240000      -2.14810000       0.03110000
C       -1.43380000      -3.25980000       0.09420000
O       -1.09690000      -4.41100000       0.06400000
C        0.81400000      -2.13030000      -0.08260000
N        1.56160000      -3.15670000      -0.14650000
N        1.10980000      -0.76810000      -0.10130000
H        0.61320000       1.88350000       0.83330000
H        0.47200000       1.88930000      -0.92850000
H       -0.98650000       1.92540000       0.07500000
H       -2.13870000      -0.61780000       0.15960000
H       -2.48990000      -2.93200000       0.17950000
H        2.54030000      -2.88570000      -0.22420000
H        2.04870000      -0.42030000      -0.17780000
