14
Properties=species:S:1:pos:R:3 gdb_129618=T pbc="F F F"
N       -0.16360000       1.31880000      -0.46940000
C       -0.06700000      -0.03940000      -0.17370000
C       -1.03990000      -0.98910000      -0.03850000
C       -2.52930000      -0.99540000      -0.19490000
C       -2.97400000      -0.02310000      -1.19430000
N       -3.28670000       0.77340000      -1.97090000
O       -0.48670000      -2.16760000       0.34460000
N        0.87840000      -2.01010000       0.46740000
C        1.11900000      -0.75950000       0.16380000
H        0.66150000       1.68530000      -0.92450000
H       -0.99040000       1.56780000      -0.99850000
H       -2.85500000      -1.99650000      -0.49870000
H       -3.03900000      -0.77440000       0.75310000
H        2.13590000      -0.39250000       0.19070000
