18
Properties=species:S:1:pos:R:3 gdb_127400=T pbc="F F F"
C       -0.13870000       1.49890000      -0.07120000
N        0.05500000       0.06480000       0.02640000
C        0.71370000      -0.55660000      -1.15010000
C        1.35640000      -1.89000000      -0.64920000
C        1.52770000      -1.53390000       0.79510000
C        0.77570000      -0.43640000       1.12860000
C        0.94190000      -0.27060000       2.51680000
N        1.74990000      -1.22340000       3.00540000
N        2.07650000      -1.99370000       1.94440000
H        0.80820000       2.05690000      -0.18840000
H       -0.77830000       1.72540000      -0.93000000
H       -0.64410000       1.86420000       0.82720000
H       -0.00510000      -0.70820000      -1.96050000
H        1.51370000       0.10620000      -1.52240000
H        0.67040000      -2.73750000      -0.78130000
H        2.27620000      -2.12240000      -1.19390000
H        0.54030000       0.47540000       3.18530000
H        2.70000000      -2.76900000       2.08720000
