20
Properties=species:S:1:pos:R:3 gdb_93789=T pbc="F F F"
C       -0.57820000       1.36830000       0.10870000
C       -0.09400000      -0.05920000      -0.08000000
C        0.86840000      -0.23010000      -1.26060000
C        1.53950000      -1.62660000      -1.27400000
C        1.11150000      -2.47570000      -0.06020000
O        1.89870000      -3.62580000       0.06430000
C        1.18720000      -1.62720000       1.19320000
N        1.83310000      -2.05550000       2.19610000
O        0.56390000      -0.43010000       1.15700000
H        0.26900000       2.04260000       0.26550000
H       -1.12740000       1.69950000      -0.77740000
H       -1.24130000       1.43950000       0.97460000
H       -0.96200000      -0.72000000      -0.20880000
H        0.31000000      -0.04790000      -2.18420000
H        1.62870000       0.55530000      -1.19330000
H        1.30370000      -2.17960000      -2.18660000
H        2.62830000      -1.53410000      -1.23310000
H        0.05430000      -2.76490000      -0.19330000
H        2.24120000      -3.59890000       0.97430000
H        1.82470000      -1.39310000       2.97080000
