19
Properties=species:S:1:pos:R:3 gdb_91375=T pbc="F F F"
C        0.10690000       1.51210000       0.11670000
C       -0.01160000       0.00470000       0.04240000
O        0.97070000      -0.61640000      -0.86160000
C        1.24300000      -1.67680000       0.11730000
C        2.64110000      -1.91940000       0.70440000
C        2.40190000      -1.78350000       2.24020000
O        3.57690000      -1.25040000       2.83540000
C        1.20920000      -0.81680000       2.31370000
C        0.56970000      -0.84120000       1.15180000
H        1.11190000       1.80130000       0.43330000
H       -0.09530000       1.95490000      -0.86340000
H       -0.62090000       1.91400000       0.82960000
H       -1.02420000      -0.29330000      -0.26570000
H        0.74460000      -2.60090000      -0.20350000
H        3.10180000      -2.86950000       0.42280000
H        3.30670000      -1.10160000       0.41220000
H        2.17260000      -2.76360000       2.68820000
H        3.52240000      -1.38500000       3.78640000
H        1.05680000      -0.15470000       3.15820000
