21
Properties=species:S:1:pos:R:3 gdb_100700=T pbc="F F F"
C       -0.00650000       1.57420000       0.10550000
C       -0.02420000       0.04810000      -0.00680000
C        0.73210000      -0.46740000      -1.23370000
O        2.10230000      -0.09380000      -1.21700000
C        0.58430000      -2.00550000      -1.38950000
O       -0.79180000      -2.38680000      -1.43340000
C        1.32130000      -2.50720000      -2.54810000
C        1.87150000      -2.91160000      -3.54040000
C        2.55810000      -3.39990000      -4.72720000
H        1.01960000       1.95180000       0.10890000
H       -0.52620000       2.03630000      -0.74130000
H       -0.50080000       1.90880000       1.02240000
H        0.42950000      -0.39920000       0.89130000
H       -1.05020000      -0.32900000      -0.04980000
H        0.32470000      -0.00160000      -2.14050000
H        2.49380000      -0.44620000      -0.40950000
H        0.97880000      -2.47070000      -0.47370000
H       -1.07860000      -2.30200000      -2.34910000
H        2.87700000      -4.44080000      -4.60500000
H        1.90950000      -3.35280000      -5.60890000
H        3.44940000      -2.79970000      -4.94040000
