20
Properties=species:S:1:pos:R:3 gdb_104630=T pbc="F F F"
C        0.28060000       1.26330000       0.31890000
C        0.19740000      -0.20290000      -0.11010000
C        0.69160000      -0.47110000      -1.54660000
C        2.25290000      -0.39210000      -1.70570000
C        2.32890000      -1.93330000      -1.65550000
O        2.74710000      -2.33580000      -0.36420000
C        0.79170000      -2.00130000      -1.88110000
C       -0.06660000       0.31030000      -2.51740000
N       -0.66560000       0.92250000      -3.29510000
H        1.30870000       1.63770000       0.27490000
H       -0.33600000       1.90080000      -0.32210000
H       -0.06920000       1.38060000       1.34850000
H        0.79930000      -0.83020000       0.55500000
H       -0.83840000      -0.55530000      -0.03330000
H        2.55860000       0.01740000      -2.66940000
H        2.78790000       0.12000000      -0.90420000
H        2.94050000      -2.40830000      -2.43230000
H        2.64710000      -3.29160000      -0.30070000
H        0.23450000      -2.66300000      -1.21290000
H        0.52500000      -2.22250000      -2.91660000
