12
Properties=species:S:1:pos:R:3 gdb_10012=T pbc="F F F"
C        0.07820000       1.51980000       0.15140000
N        0.23210000       0.07950000       0.16430000
C        0.55350000      -0.55730000      -0.87200000
O        0.70600000      -1.91600000      -0.89730000
C        0.03390000      -2.67720000       0.04640000
O        0.25940000      -3.83670000       0.15260000
C        0.84130000       0.01150000      -2.17540000
N        1.06120000       0.51920000      -3.19020000
H        0.74400000       1.94360000       0.90970000
H        0.28820000       1.98930000      -0.81710000
H       -0.94570000       1.76340000       0.45310000
H       -0.69340000      -2.08580000       0.61590000
