13
Properties=species:S:1:pos:R:3 gdb_130038=T pbc="F F F"
N       -0.19410000       1.42290000       0.07230000
C       -0.07510000       0.07870000       0.01980000
N       -1.02250000      -0.78910000       0.00820000
C       -0.45270000      -2.13190000      -0.00540000
C        1.05210000      -1.91660000      -0.01340000
C        1.33140000      -0.49220000      -0.00440000
O        2.36240000       0.14780000      -0.02440000
N        2.76600000      -3.63650000      -0.05170000
N        1.96060000      -2.83900000      -0.03440000
H        0.64380000       1.95720000      -0.09310000
H       -1.08840000       1.85270000      -0.09110000
H       -0.78840000      -2.69470000       0.87530000
H       -0.79820000      -2.68110000      -0.89080000
