18
Properties=species:S:1:pos:R:3 gdb_133859=T pbc="F F F"
C        5.33190000       5.90100000      -2.44820000
N        4.76620000       4.80890000      -3.22700000
C        3.41040000       4.27460000      -3.07710000
C        4.15680000       3.37740000      -1.28110000
C        3.06630000       2.42500000      -1.60640000
C        3.42730000       1.58500000      -2.61150000
C        4.79330000       2.01240000      -3.18510000
C        4.67720000       3.49300000      -2.70940000
C        2.81870000       3.94720000      -1.68000000
H        4.94330000       6.84800000      -2.83320000
H        6.41910000       5.89700000      -2.57540000
H        5.10580000       5.83270000      -1.37540000
H        2.85610000       4.15780000      -4.00280000
H        4.67690000       3.41720000      -0.33320000
H        2.74040000       0.98990000      -3.20790000
H        4.81010000       1.86500000      -4.27000000
H        5.68350000       1.52820000      -2.76510000
H        2.09540000       4.51020000      -1.10080000
