21
Properties=species:S:1:pos:R:3 gdb_73289=T pbc="F F F"
C        0.01760000       1.51310000      -0.01410000
C        0.04730000       0.00520000      -0.04030000
C        0.45240000      -0.72290000      -1.32000000
C        0.33370000      -2.20430000      -0.86720000
C       -0.11570000      -2.02980000       0.58170000
C       -0.36350000      -3.24510000       1.44040000
C        0.61070000      -0.78360000       1.18780000
O       -0.57280000      -0.44340000       1.99090000
C       -1.08920000      -0.80780000       0.66350000
H        1.00510000       1.93100000      -0.24090000
H       -0.68300000       1.90680000      -0.75940000
H       -0.29070000       1.86670000       0.97310000
H       -0.21560000      -0.48000000      -2.15320000
H        1.46720000      -0.45620000      -1.63390000
H       -0.39920000      -2.76880000      -1.45350000
H        1.28370000      -2.74510000      -0.93450000
H        0.54140000      -3.85730000       1.52790000
H       -0.67530000      -2.94080000       2.44290000
H       -1.14680000      -3.87920000       1.00970000
H        1.58870000      -0.71430000       1.67090000
H       -2.17090000      -0.76770000       0.51130000
