22
Properties=species:S:1:pos:R:3 gdb_8006=T pbc="F F F"
C        0.30730000       1.53400000       0.11270000
C       -0.00820000       0.04030000      -0.01270000
C        0.70650000      -0.61850000      -1.22840000
C        1.30570000      -1.94240000      -0.71000000
C        2.44540000      -2.51050000      -1.55280000
C        1.67530000      -1.59640000       0.74110000
O        2.85970000      -0.79830000       0.70090000
C        0.46190000      -0.78780000       1.22210000
H        1.38210000       1.68240000       0.26190000
H        0.01430000       2.07900000      -0.79140000
H       -0.22000000       1.98620000       0.96020000
H       -1.09260000      -0.07140000      -0.12090000
H        0.03230000      -0.77440000      -2.07590000
H        1.51740000       0.03010000      -1.57770000
H        0.50110000      -2.68860000      -0.65010000
H        3.28560000      -1.81230000      -1.58350000
H        2.81050000      -3.45830000      -1.14230000
H        2.11540000      -2.69830000      -2.58000000
H        1.84820000      -2.49680000       1.34960000
H        3.03550000      -0.48790000       1.59410000
H        0.70770000      -0.15660000       2.08420000
H       -0.32340000      -1.47810000       1.55050000
