15
Properties=species:S:1:pos:R:3 gdb_20222=T pbc="F F F"
C       -0.03320000       1.55280000      -0.00820000
C        1.22240000       2.02300000      -0.04730000
C        2.15060000       0.84920000      -0.09050000
C        1.36900000      -0.31420000      -0.73790000
C        1.78820000      -1.21220000       0.46800000
C        0.74830000      -0.52360000       1.25490000
C        0.02930000       0.05170000      -0.01330000
N        2.13910000       0.01780000       1.23120000
H       -0.93940000       2.13420000       0.11280000
H        1.53340000       3.05670000       0.03870000
H        3.18570000       1.01290000      -0.38580000
H        1.39190000      -0.53140000      -1.80500000
H        2.30260000      -2.15780000       0.56830000
H        0.31970000      -0.74590000       2.22300000
H       -0.85830000      -0.50800000      -0.30560000
