17
Properties=species:S:1:pos:R:3 gdb_128096=T pbc="F F F"
C        0.15170000       1.47100000       0.04000000
N       -0.12790000       0.04370000       0.12630000
C        0.52950000      -0.74060000       1.03160000
C        0.68980000      -2.10160000       1.11280000
C        0.22470000      -3.17770000       0.18480000
C        1.41320000      -2.22780000       2.32600000
O        1.81520000      -3.40210000       2.84470000
N        1.67990000      -1.09180000       2.92640000
O        1.10190000      -0.11610000       2.07160000
H        1.17640000       1.69290000      -0.28870000
H       -0.55180000       1.92030000      -0.66380000
H        0.00180000       1.93070000       1.01860000
H       -0.31300000      -0.41950000      -0.75020000
H        0.39020000      -2.91100000      -0.86670000
H        0.77680000      -4.10190000       0.37420000
H       -0.84250000      -3.40580000       0.29930000
H        2.29910000      -3.20750000       3.65830000
