17
Properties=species:S:1:pos:R:3 gdb_30133=T pbc="F F F"
C       -0.10260000       1.47690000      -0.32030000
C        0.00660000      -0.01030000      -0.09150000
C        1.28970000      -0.73050000      -0.31110000
N        0.78410000      -0.55140000       1.04760000
C        1.46100000       0.31330000       1.91050000
C        1.01010000       0.83840000       3.08170000
O        2.02290000       1.59030000       3.62200000
C        3.03620000       1.46580000       2.74540000
N        2.77520000       0.73160000       1.71260000
H        0.86600000       1.97200000      -0.21440000
H       -0.47910000       1.67290000      -1.32960000
H       -0.79790000       1.93570000       0.39160000
H       -0.91690000      -0.56390000      -0.25090000
H        1.29460000      -1.75750000      -0.66600000
H        2.15420000      -0.13840000      -0.59720000
H        0.09190000       0.78180000       3.63750000
H        3.95460000       1.97860000       2.98470000
