18
Properties=species:S:1:pos:R:3 gdb_37244=T pbc="F F F"
C        0.07360000       1.53540000      -0.11040000
C        1.37740000       0.79470000       0.01450000
C        0.05000000       0.03610000       0.02650000
N        0.40350000      -0.72780000      -1.19650000
C       -0.05190000      -0.15210000      -2.51000000
C        1.28530000       0.59570000      -2.64100000
C        2.07590000       0.94210000      -3.82100000
O        1.41940000       1.94810000      -3.03460000
C        1.70650000       0.03120000      -1.27480000
H       -0.22680000       2.05560000       0.79410000
H       -0.19780000       2.05280000      -1.02400000
H        2.07880000       0.97540000       0.81830000
H       -0.47140000      -0.46240000       0.83580000
H       -0.22130000      -0.93460000      -3.25560000
H       -0.93640000       0.48960000      -2.45620000
H        3.16400000       0.94400000      -3.76490000
H        1.66070000       0.78350000      -4.81570000
H        2.62010000      -0.56910000      -1.24180000
