19
Properties=species:S:1:pos:R:3 gdb_70381=T pbc="F F F"
C       -0.09960000       1.54910000       0.07820000
C        0.03980000       0.05500000       0.03220000
C       -0.84970000      -0.88040000       0.80970000
C        0.63380000      -0.94100000       1.03650000
C        1.27770000      -1.75330000      -0.08630000
C        0.67430000      -0.73170000      -1.13460000
O       -0.30140000      -1.23170000      -2.03590000
C        1.71340000       0.00300000      -1.85030000
C        2.57100000       0.57770000      -2.46790000
H        0.83710000       2.04700000      -0.19160000
H       -0.87440000       1.89300000      -0.61700000
H       -0.38490000       1.87930000       1.08220000
H       -1.42720000      -0.39280000       1.58900000
H       -1.36430000      -1.69740000       0.31280000
H        1.08690000      -0.73310000       1.99770000
H        2.36850000      -1.74320000      -0.08350000
H        0.91770000      -2.78010000      -0.20690000
H        0.15930000      -1.59650000      -2.79950000
H        3.32510000       1.09200000      -3.01090000
