18
Properties=species:S:1:pos:R:3 gdb_18053=T pbc="F F F"
C       -0.03730000       1.57310000      -0.06470000
C        1.50830000       1.52430000       0.09410000
C        1.36580000       0.10360000       0.67790000
O        1.27420000       0.20880000       2.09620000
C        0.34750000      -0.68630000       2.65190000
O       -0.96320000      -0.43700000       2.22300000
C       -1.09900000      -0.71490000       0.83370000
C       -0.04550000       0.01940000       0.01930000
H       -0.51860000       2.01890000       0.80820000
H       -0.44290000       2.02640000      -0.97150000
H        2.02070000       1.50990000      -0.87190000
H        1.98540000       2.25490000       0.74940000
H        2.10820000      -0.65930000       0.40760000
H        0.62850000      -1.73060000       2.41290000
H        0.36870000      -0.52930000       3.73210000
H       -1.00940000      -1.80250000       0.66890000
H       -2.11280000      -0.41290000       0.55250000
H        0.03050000      -0.42130000      -0.97990000
