20
Properties=species:S:1:pos:R:3 gdb_15903=T pbc="F F F"
C       -0.85210000       1.09490000      -1.18710000
C        0.02720000      -0.07580000      -0.79850000
O        1.38520000       0.05580000      -1.29020000
C        1.93580000      -0.35330000      -0.01830000
C        3.09280000       0.52350000       0.42270000
C        0.54080000      -0.25530000       0.65650000
C        0.30850000       0.88430000       1.63150000
O       -1.06290000       0.84010000       2.00730000
H       -0.41180000       2.04590000      -0.87540000
H       -0.97270000       1.12210000      -2.27480000
H       -1.83790000       0.99790000      -0.72430000
H       -0.41980000      -1.00780000      -1.17550000
H        2.27720000      -1.39860000      -0.07190000
H        2.79940000       1.57360000       0.50100000
H        3.48550000       0.19200000       1.39010000
H        3.90220000       0.45530000      -0.31110000
H        0.20340000      -1.17850000       1.13380000
H        0.96440000       0.75520000       2.50760000
H        0.56210000       1.85220000       1.17590000
H       -1.24330000       1.59260000       2.57830000
