16
Properties=species:S:1:pos:R:3 gdb_107907=T pbc="F F F"
O       -0.01480000       1.33740000      -0.30210000
C       -0.07300000       0.01140000       0.18700000
C       -1.45350000      -0.55830000       0.08450000
N       -2.56840000      -0.01020000       0.91020000
C       -3.34100000      -1.22520000       0.45940000
C       -2.00660000      -1.93730000      -0.01140000
C       -2.07620000      -0.97840000      -1.24870000
C       -3.55460000      -0.90580000      -1.03870000
O       -4.51270000      -0.86120000      -1.75360000
H       -0.76630000       1.81280000       0.07100000
H        0.62640000      -0.58310000      -0.41030000
H        0.26200000      -0.04690000       1.23680000
H       -2.30410000      -0.17300000       1.88390000
H       -4.13070000      -1.61090000       1.09760000
H       -1.62240000      -2.94740000       0.01810000
H       -1.50030000      -1.02470000      -2.16240000
