19
Properties=species:S:1:pos:R:3 gdb_31485=T pbc="F F F"
C       -0.04770000       1.50330000       0.16040000
C        0.00350000       0.02190000      -0.00620000
C       -0.00800000      -0.80180000      -1.10850000
C       -0.06230000      -0.43360000      -2.55630000
N        0.03310000      -2.12890000      -0.71790000
C        0.07490000      -2.10950000       0.59280000
C        0.17240000      -3.29240000       1.50170000
O       -0.25760000      -2.87890000       2.79550000
N        0.06750000      -0.83860000       1.07630000
H        0.83560000       1.89210000       0.68260000
H       -0.09130000       1.99160000      -0.81550000
H       -0.93010000       1.82540000       0.72800000
H        0.82390000      -0.79520000      -3.08980000
H       -0.93420000      -0.88390000      -3.04340000
H       -0.11990000       0.64940000      -2.69590000
H       -0.44690000      -4.10430000       1.09630000
H        1.21100000      -3.65890000       1.53460000
H       -0.03260000      -3.57200000       3.42200000
H        0.03940000      -0.60510000       2.05500000
