23
Properties=species:S:1:pos:R:3 gdb_121948=T pbc="F F F"
C        0.02390000       1.35220000       0.05330000
O       -0.00750000      -0.05160000       0.12130000
C       -1.31160000      -0.57690000      -0.01590000
C       -1.22960000      -2.09550000       0.05650000
C       -2.59210000      -2.77890000      -0.11100000
O       -3.21500000      -2.40700000      -1.34320000
C       -2.48930000      -4.28190000       0.03830000
C       -2.66380000      -4.92820000       1.39080000
C       -3.72230000      -5.09390000       0.32990000
H        1.06620000       1.66390000       0.15930000
H       -0.36260000       1.72550000      -0.90880000
H       -0.56810000       1.81580000       0.85910000
H       -1.96660000      -0.19060000       0.78560000
H       -1.75950000      -0.26730000      -0.97250000
H       -0.54390000      -2.45070000      -0.72500000
H       -0.78980000      -2.38990000       1.01610000
H       -3.27980000      -2.40070000       0.65760000
H       -2.69780000      -2.79400000      -2.05840000
H       -1.75010000      -4.74080000      -0.61690000
H       -2.03920000      -5.77890000       1.63960000
H       -2.88700000      -4.28300000       2.23460000
H       -4.65610000      -4.55550000       0.45200000
H       -3.82750000      -6.06220000      -0.14670000
