17
Properties=species:S:1:pos:R:3 gdb_93993=T pbc="F F F"
N       -0.02060000       1.47270000       0.27190000
C       -0.04310000       0.05080000      -0.01580000
C       -1.44430000      -0.55200000      -0.15870000
C       -1.19880000      -1.83210000      -0.97260000
N       -0.05020000      -1.48600000      -1.82440000
C        0.26230000      -2.22480000      -2.96140000
O        1.19480000      -2.03970000      -3.69440000
C        0.65400000      -0.37170000      -1.32550000
O        1.60740000       0.16320000      -1.82370000
H        0.94650000       1.78900000       0.25640000
H       -0.47680000       1.97550000      -0.48640000
H        0.49250000      -0.46640000       0.79430000
H       -1.93230000      -0.74880000       0.79660000
H       -2.07920000       0.13680000      -0.72830000
H       -0.95000000      -2.67620000      -0.31710000
H       -2.05670000      -2.12160000      -1.58470000
H       -0.48340000      -3.03190000      -3.11770000
