20
Properties=species:S:1:pos:R:3 gdb_112667=T pbc="F F F"
C        0.05840000       1.54440000      -0.00870000
C        0.00120000       0.01370000      -0.03140000
C       -1.41430000      -0.56090000       0.05600000
C       -1.46970000      -2.10670000      -0.02840000
C       -2.69750000      -2.47880000       0.80630000
O       -2.62430000      -3.73900000       1.41890000
C       -2.74880000      -1.35980000       1.85310000
O       -3.30010000      -1.45290000       2.93240000
N       -2.05780000      -0.30650000       1.34680000
H        1.08740000       1.89850000      -0.11840000
H       -0.53180000       1.97660000      -0.82410000
H       -0.32320000       1.95510000       0.93290000
H        0.44990000      -0.35330000      -0.96270000
H        0.59810000      -0.40040000       0.79030000
H       -2.01800000      -0.12150000      -0.75380000
H       -1.50780000      -2.46220000      -1.05970000
H       -0.58580000      -2.53660000       0.45520000
H       -3.61230000      -2.39180000       0.19280000
H       -3.04560000      -3.62470000       2.28420000
H       -2.02060000       0.57900000       1.82640000
