20
Properties=species:S:1:pos:R:3 gdb_104821=T pbc="F F F"
C        1.04590000      -0.84370000       1.31960000
C        0.23130000      -0.18620000       0.19970000
C        0.82360000      -0.36290000      -1.20230000
C        2.16780000       0.35500000      -1.40120000
O        2.02390000       1.74820000      -1.21610000
C        0.71740000      -1.79600000      -1.82260000
N       -0.22630000      -1.23360000      -2.79890000
C       -0.12500000       0.05520000      -2.35270000
O       -0.54850000       1.11360000      -2.75400000
H        1.17910000      -1.91800000       1.14880000
H        2.03840000      -0.39420000       1.41780000
H        0.53740000      -0.72440000       2.28090000
H       -0.78820000      -0.59110000       0.20400000
H        0.14370000       0.88780000       0.38990000
H        2.91260000       0.01440000      -0.67430000
H        2.56030000       0.11700000      -2.40430000
H        1.29970000       2.03570000      -1.79040000
H        1.64200000      -2.17780000      -2.26860000
H        0.28090000      -2.55760000      -1.17000000
H       -0.61920000      -1.61310000      -3.64820000
