21
Properties=species:S:1:pos:R:3 gdb_73203=T pbc="F F F"
C       -0.19290000       1.63420000       0.24830000
C        0.01190000       0.13490000       0.08770000
C       -1.29380000      -0.58880000      -0.26350000
C       -1.23170000      -2.07890000      -0.05260000
C       -0.49820000      -2.63310000       0.91110000
C        0.34550000      -1.80550000       1.84770000
C        0.90140000      -0.54790000       1.17330000
C        1.89120000      -0.77380000       0.01290000
O        1.01520000      -0.13880000      -0.93470000
H        0.76420000       2.13680000       0.41520000
H       -0.64690000       2.05860000      -0.65360000
H       -0.85160000       1.84920000       1.09700000
H       -2.11430000      -0.16740000       0.33670000
H       -1.52920000      -0.35260000      -1.30760000
H       -1.84200000      -2.70220000      -0.70040000
H       -0.50600000      -3.71020000       1.05380000
H       -0.25170000      -1.51790000       2.72610000
H        1.17780000      -2.40090000       2.24340000
H        1.26720000       0.15610000       1.92490000
H        2.85450000      -0.25480000       0.09800000
H        2.07290000      -1.82580000      -0.24190000
