23
Properties=species:S:1:pos:R:3 gdb_101006=T pbc="F F F"
C        0.17640000       1.31730000       0.39040000
O       -0.02850000      -0.04080000       0.07890000
C        0.60380000      -0.48440000      -1.11430000
C        2.12700000      -0.56940000      -0.99940000
C       -0.04890000      -1.83350000      -1.46210000
C        0.16220000      -2.90010000      -0.40010000
C       -1.49100000      -1.69620000      -2.01220000
C       -0.87580000      -2.12670000      -3.35640000
O        0.43360000      -2.27250000      -2.76640000
H        1.21950000       1.53640000       0.65950000
H       -0.10810000       1.97340000      -0.44740000
H       -0.45850000       1.54990000       1.24930000
H        0.35610000       0.21200000      -1.93410000
H        2.52720000      -1.07190000      -1.88390000
H        2.57850000       0.42500000      -0.94260000
H        2.42330000      -1.12890000      -0.10760000
H       -0.21230000      -2.54740000       0.56470000
H       -0.36550000      -3.81770000      -0.67480000
H        1.22380000      -3.14150000      -0.29530000
H       -2.20990000      -2.39700000      -1.58490000
H       -1.90640000      -0.68860000      -1.97110000
H       -1.24110000      -3.07300000      -3.77290000
H       -0.88480000      -1.36880000      -4.14970000
