23
Properties=species:S:1:pos:R:3 gdb_109651=T pbc="F F F"
C       -1.76980000       2.22880000      -1.47070000
C       -0.99840000       1.22300000      -0.60510000
C       -1.80260000      -0.03570000      -0.34970000
C       -1.80640000      -1.23040000      -1.25070000
C       -0.99690000      -1.33660000      -2.52420000
C       -1.15640000      -1.34180000       0.14120000
C        0.34310000      -1.48250000       0.32040000
C       -1.97160000      -2.09080000       1.13520000
O       -3.18090000      -2.10150000       1.17510000
H       -1.18970000       3.14430000      -1.62230000
H       -2.00060000       1.80780000      -2.45440000
H       -2.71850000       2.50720000      -0.99970000
H       -0.04290000       0.99130000      -1.08570000
H       -0.74780000       1.68860000       0.35660000
H       -2.75930000       0.14970000       0.13440000
H       -2.76230000      -1.74620000      -1.29240000
H       -0.06100000      -0.77450000      -2.48720000
H       -0.74880000      -2.38000000      -2.74630000
H       -1.57550000      -0.95000000      -3.37050000
H        0.90890000      -0.96340000      -0.45390000
H        0.66500000      -1.07700000       1.28640000
H        0.64290000      -2.53630000       0.28970000
H       -1.37730000      -2.67190000       1.87770000
