21
Properties=species:S:1:pos:R:3 gdb_112543=T pbc="F F F"
C        0.14310000       1.44770000       0.27950000
C        0.06070000      -0.05950000       0.01400000
C       -1.37360000      -0.57980000       0.01110000
C       -1.66680000      -2.11410000      -0.11820000
C       -2.77460000      -2.01170000       0.99320000
C       -4.18620000      -1.88710000       0.42160000
O       -2.76290000      -2.96620000       2.02580000
C       -2.09770000      -0.68100000       1.35820000
O       -1.93090000      -0.16960000       2.43420000
H        1.18250000       1.78950000       0.28110000
H       -0.39280000       2.01490000      -0.48980000
H       -0.29890000       1.69160000       1.24920000
H        0.52670000      -0.30020000      -0.94960000
H        0.63240000      -0.60010000       0.77840000
H       -1.98300000      -0.01830000      -0.70780000
H       -1.99620000      -2.47100000      -1.09520000
H       -0.82730000      -2.71640000       0.23610000
H       -4.50980000      -2.86600000       0.05470000
H       -4.88190000      -1.56420000       1.20090000
H       -4.23110000      -1.17510000      -0.40800000
H       -2.44110000      -2.51940000       2.81930000
