13
Properties=species:S:1:pos:R:3 gdb_125778=T pbc="F F F"
C       -0.03620000       1.47950000       0.02490000
C       -0.01020000      -0.01460000      -0.02010000
N       -0.05100000      -0.56870000      -1.17560000
O       -0.02390000      -1.99120000      -1.16970000
C        0.04040000      -2.64140000       0.00390000
O        0.05740000      -3.95510000      -0.17740000
N        0.08340000      -2.14950000       1.18440000
C        0.06150000      -0.76810000       1.27970000
O        0.09650000      -0.16510000       2.32860000
H        0.85920000       1.84480000       0.53670000
H       -0.09180000       1.89720000      -0.98080000
H       -0.89160000       1.81180000       0.62050000
H        0.01890000      -4.14190000      -1.12630000
