18
Properties=species:S:1:pos:R:3 gdb_41600=T pbc="F F F"
C       -0.10440000       1.41510000      -0.08230000
C        1.45610000       1.54750000      -0.02170000
C        1.57150000       0.02380000       0.08770000
C        0.03020000      -0.10690000       0.02780000
C        0.89490000      -0.63180000      -1.07420000
C        0.92030000      -0.25150000      -2.56020000
N        1.05680000      -1.53860000      -3.26800000
C        1.09660000      -2.42290000      -2.36180000
O        1.01600000      -2.06640000      -1.05820000
H       -0.58670000       1.85840000       0.79080000
H       -0.60250000       1.79570000      -0.98010000
H        1.95080000       2.01230000      -0.88090000
H        1.78830000       2.05990000       0.88310000
H        2.28280000      -0.53100000       0.68740000
H       -0.62170000      -0.77740000       0.57450000
H        0.00360000       0.25400000      -2.88440000
H        1.76130000       0.40290000      -2.81620000
H        1.19350000      -3.49030000      -2.52590000
