17
Properties=species:S:1:pos:R:3 gdb_86515=T pbc="F F F"
C       -0.61940000       1.25650000       0.16990000
C        0.21300000       0.00450000       0.00010000
C        1.03190000      -0.16430000      -1.30230000
C        2.24340000      -0.26460000      -0.33590000
O        1.43040000       0.03610000       0.79470000
C        2.86600000      -1.65610000      -0.27980000
O        2.57750000      -2.48530000       0.55020000
C        3.81920000      -1.91510000      -1.34990000
C        4.60170000      -2.09510000      -2.24700000
H       -0.04250000       2.14710000      -0.09770000
H       -1.51060000       1.21070000      -0.46580000
H       -0.94640000       1.35710000       1.20940000
H       -0.37400000      -0.88710000       0.25460000
H        0.81790000      -1.04760000      -1.90540000
H        1.04800000       0.71980000      -1.94160000
H        3.03980000       0.47450000      -0.49320000
H        5.29670000      -2.27420000      -3.03140000
