15
Properties=species:S:1:pos:R:3 gdb_98151=T pbc="F F F"
O       -0.48590000       1.49090000       0.42130000
C       -1.18210000       0.31720000       0.72120000
C       -1.05790000      -0.70070000      -0.39640000
O       -0.42020000      -0.45480000      -1.39010000
C       -1.77370000      -2.07660000      -0.23460000
C       -1.22460000      -2.80410000       0.91170000
C       -0.74270000      -3.38770000       1.84380000
C       -3.22330000      -1.88840000      -0.14420000
C       -4.40920000      -1.70790000      -0.09320000
H       -0.09040000       1.34740000      -0.45170000
H       -0.80860000      -0.14850000       1.64620000
H       -2.25320000       0.51330000       0.88300000
H       -1.53610000      -2.62130000      -1.15680000
H       -0.32590000      -3.91090000       2.66920000
H       -5.46000000      -1.55880000      -0.04320000
