18
Properties=species:S:1:pos:R:3 gdb_41834=T pbc="F F F"
C        0.02580000       1.51270000       0.11380000
O        1.32820000       2.06890000      -0.00730000
C        2.15170000       1.38550000      -0.96360000
C        2.41470000      -0.01980000      -0.40470000
N        1.17570000      -0.79120000      -0.28300000
C       -0.03250000      -0.00570000      -0.05250000
C        0.22750000      -0.60890000      -1.41070000
C        0.60070000       0.30310000      -2.51330000
C        1.50740000       1.26770000      -2.32440000
H       -0.32480000       1.78510000       1.11380000
H       -0.65380000       1.98070000      -0.61610000
H        3.07370000       1.97100000      -1.00460000
H        3.10660000      -0.57760000      -1.04410000
H        2.85400000       0.06910000       0.59360000
H       -0.76620000      -0.50150000       0.58040000
H       -0.31040000      -1.51260000      -1.68350000
H        0.11240000       0.15790000      -3.47230000
H        1.79030000       1.95210000      -3.11640000
