19
Properties=species:S:1:pos:R:3 gdb_97807=T pbc="F F F"
C       -0.03950000       1.41620000       0.06090000
C       -0.46200000       0.02430000      -0.42480000
C        0.56170000      -0.58110000      -1.35200000
O        1.77780000      -1.04470000      -0.76840000
C        0.90490000      -2.02300000      -1.36450000
C        0.27210000      -2.97680000      -0.49540000
C       -0.24650000      -3.80230000       0.21420000
C       -0.92200000      -4.78710000       1.05770000
O       -2.20810000      -4.37440000       1.49780000
H        0.91170000       1.36190000       0.59840000
H        0.08660000       2.11080000      -0.77690000
H       -0.78920000       1.83900000       0.73570000
H       -0.61230000      -0.64640000       0.42630000
H       -1.41880000       0.08540000      -0.95960000
H        0.70790000      -0.04840000      -2.29550000
H        1.28970000      -2.43730000      -2.29660000
H       -0.96860000      -5.74920000       0.52280000
H       -0.33740000      -4.96110000       1.96790000
H       -2.71390000      -4.12430000       0.71760000
