18
Properties=species:S:1:pos:R:3 gdb_85442=T pbc="F F F"
C       -0.10120000       1.57910000      -0.05020000
C       -0.00670000       0.05150000       0.04320000
N        0.74570000      -0.52880000      -1.06080000
C        1.99870000      -0.99870000      -0.76320000
O        2.80070000      -1.43740000      -1.55570000
C        2.17730000      -0.84110000       0.75130000
C        0.79650000      -0.46030000       1.25130000
C        0.46560000      -0.12600000       2.63700000
O        0.12950000      -1.40590000       2.09230000
H        0.89280000       2.03660000      -0.02200000
H       -0.58280000       1.87720000      -0.98720000
H       -0.69530000       1.98490000       0.77400000
H       -1.01280000      -0.38030000       0.09510000
H        0.45250000      -0.45590000      -2.02270000
H        2.53390000      -1.76730000       1.20510000
H        2.92490000      -0.06220000       0.93600000
H        1.25100000      -0.12770000       3.39210000
H       -0.38060000       0.52430000       2.85720000
