18
Properties=species:S:1:pos:R:3 gdb_49770=T pbc="F F F"
O       -0.05540000      -0.03360000      -0.00240000
C       -0.01000000       1.18060000       0.00680000
N        1.14040000       1.91250000      -0.00020000
C        2.42110000       1.33840000      -0.01900000
C        3.38400000       2.25900000      -0.02190000
C        2.78690000       3.64620000      -0.00380000
C        1.27180000       3.37100000       0.01010000
C        0.29570000       4.24110000      -0.73060000
C        0.31170000       4.22910000       0.78480000
H       -0.91600000       1.81360000       0.02190000
H        2.47790000       0.26070000      -0.02850000
H        4.44430000       2.05470000      -0.03530000
H        3.09890000       4.22050000       0.87810000
H        3.08010000       4.23550000      -0.88220000
H        0.69140000       5.11000000      -1.24690000
H       -0.53800000       3.76390000      -1.23460000
H       -0.51130000       3.74410000       1.29880000
H        0.71850000       5.08990000       1.30610000
