21
Properties=species:S:1:pos:R:3 gdb_92887=T pbc="F F F"
C        0.01690000       1.57280000       0.19310000
C       -0.01980000       0.07380000      -0.00390000
C       -1.19310000      -0.57650000      -0.04660000
C       -1.39330000      -2.05440000      -0.23730000
C       -0.53220000      -2.92090000       0.69000000
O       -1.15990000      -4.20160000       0.74070000
C        0.91150000      -3.07130000       0.20500000
C        1.69020000      -1.82820000      -0.11610000
C        1.30040000      -0.54720000      -0.18370000
H        0.51020000       2.06910000      -0.65230000
H       -0.98750000       1.99120000       0.29280000
H        0.58860000       1.84200000       1.09000000
H       -2.09850000       0.01240000       0.07940000
H       -2.43810000      -2.31080000      -0.04050000
H       -1.19580000      -2.34580000      -1.27870000
H       -0.53550000      -2.46000000       1.68950000
H       -0.63210000      -4.77030000       1.31050000
H        1.47580000      -3.63940000       0.96160000
H        0.89620000      -3.72150000      -0.68250000
H        2.74160000      -2.02240000      -0.32300000
H        2.08800000       0.17020000      -0.41230000
