14
Properties=species:S:1:pos:R:3 gdb_127208=T pbc="F F F"
C       -0.01060000       1.46670000       0.01710000
N        0.00640000       0.01700000       0.04050000
C       -0.00300000      -0.74360000      -1.13280000
O       -0.02520000      -0.36380000      -2.28170000
N        0.01970000      -2.03410000      -0.62300000
N        0.04020000      -2.10120000       0.72820000
C        0.03160000      -0.85200000       1.11630000
C        0.04810000      -0.42870000       2.52860000
O        0.07000000      -1.18830000       3.46410000
H        0.88670000       1.88330000       0.48350000
H       -0.03530000       1.75780000      -1.03490000
H       -0.89740000       1.86250000       0.52010000
H        0.01940000      -2.87740000      -1.17210000
H        0.03860000       0.67280000       2.67080000
