20
Properties=species:S:1:pos:R:3 gdb_120976=T pbc="F F F"
O       -0.01770000       1.08200000       0.34100000
C       -0.04660000      -0.30400000       0.07690000
C       -1.46800000      -0.76480000      -0.25590000
N       -2.01350000       0.05840000      -1.34480000
C       -1.59430000      -0.37550000      -2.69300000
C       -2.81150000      -1.04470000      -3.30510000
O       -3.41400000      -2.01100000      -2.43420000
C       -3.97200000      -0.69150000      -2.48550000
C       -3.48140000       0.20110000      -1.36090000
H       -0.63230000       1.45820000      -0.30620000
H        0.64010000      -0.56890000      -0.74610000
H        0.31010000      -0.82660000       0.97170000
H       -1.48970000      -1.84110000      -0.48470000
H       -2.09140000      -0.59800000       0.62770000
H       -1.30240000       0.48050000      -3.31750000
H       -0.73100000      -1.04400000      -2.62660000
H       -2.86570000      -1.25620000      -4.36980000
H       -4.98300000      -0.60950000      -2.87580000
H       -3.90180000      -0.06570000      -0.38780000
H       -3.77520000       1.23860000      -1.57880000
