25
Properties=species:S:1:pos:R:3 gdb_118686=T pbc="F F F"
C       -0.62610000       0.44020000       3.53120000
C       -0.59660000      -0.89340000       2.78030000
C       -1.63510000      -0.96580000       1.65100000
C       -1.61380000      -2.27810000       0.88950000
O       -0.38060000      -2.52850000       0.24590000
C       -2.37820000      -3.50660000       1.35020000
C       -3.23570000      -3.56150000       2.59730000
C       -2.79080000      -2.75990000       0.08400000
C       -4.09220000      -1.99770000      -0.04790000
H        0.12810000       0.47040000       4.32380000
H       -0.43130000       1.27920000       2.85380000
H       -1.60380000       0.61210000       3.99510000
H        0.40510000      -1.04550000       2.35880000
H       -0.76680000      -1.71730000       3.48570000
H       -2.63050000      -0.78620000       2.06980000
H       -1.44730000      -0.15210000       0.93780000
H        0.25270000      -2.80020000       0.91880000
H       -1.84570000      -4.43350000       1.14940000
H       -3.74080000      -2.61530000       2.80660000
H       -4.01200000      -4.32930000       2.50180000
H       -2.63470000      -3.81160000       3.47890000
H       -2.48400000      -3.25720000      -0.83230000
H       -4.40110000      -1.51820000       0.88400000
H       -4.00960000      -1.21310000      -0.80830000
H       -4.90320000      -2.66810000      -0.35330000
