24
Properties=species:S:1:pos:R:3 gdb_9414=T pbc="F F F"
C        0.00400000       1.53510000      -0.14500000
C        0.01350000       0.01350000       0.03410000
C        0.68890000      -0.48770000       1.32570000
C       -0.06270000      -0.02290000       2.58170000
C        0.83860000      -2.02080000       1.27990000
C        1.68260000      -2.62500000       2.40730000
C        1.90470000      -4.12190000       2.23370000
O        2.67600000      -4.58330000       3.33360000
H        1.02020000       1.94380000      -0.10410000
H       -0.42410000       1.81060000      -1.11410000
H       -0.58660000       2.03860000       0.62630000
H       -1.01730000      -0.36640000       0.00000000
H        0.52880000      -0.43780000      -0.82370000
H        1.70180000      -0.05750000       1.35750000
H       -1.08110000      -0.43110000       2.59730000
H        0.43900000      -0.34700000       3.49770000
H       -0.14140000       1.06700000       2.62560000
H       -0.16220000      -2.47720000       1.28500000
H        1.28960000      -2.29540000       0.31630000
H        2.66250000      -2.13280000       2.45040000
H        1.20990000      -2.46560000       3.38240000
H        0.93180000      -4.63890000       2.18530000
H        2.42020000      -4.31320000       1.27780000
H        2.81870000      -5.52800000       3.22520000
