16
Properties=species:S:1:pos:R:3 gdb_64619=T pbc="F F F"
C       -0.09440000       1.59380000      -0.01750000
C        0.04020000       0.06240000       0.02120000
N        0.84590000      -0.41980000      -1.13540000
C        1.76420000      -1.16570000      -0.66660000
N        1.82540000      -1.41590000       0.73520000
C        2.19960000      -0.16460000       1.45660000
C        0.77450000      -0.51260000       1.25310000
C       -1.30370000      -0.54200000      -0.06190000
N       -2.36110000      -1.00580000      -0.09730000
H        0.89450000       2.05360000       0.03720000
H       -0.57080000       1.90110000      -0.95050000
H       -0.69870000       1.94720000       0.82190000
H        2.50920000      -1.64150000      -1.29750000
H        2.65220000      -0.32450000       2.42970000
H        2.63840000       0.63250000       0.86410000
H        0.18380000      -0.88610000       2.08140000
