16
Properties=species:S:1:pos:R:3 gdb_30037=T pbc="F F F"
C        0.01440000       1.42770000       0.05890000
N       -0.03230000      -0.01670000       0.00020000
C       -0.01180000      -0.82130000      -1.13210000
C        0.02750000      -2.13000000      -0.75700000
N        0.04180000      -2.13890000       0.63360000
C        0.07080000      -2.93810000       1.76850000
C        0.06110000      -2.04460000       2.81660000
N        0.02740000      -0.72610000       2.40090000
C        0.01390000      -0.84440000       1.09170000
H        1.04260000       1.80530000       0.01390000
H       -0.55660000       1.84980000      -0.77170000
H       -0.43390000       1.75130000       1.00020000
H       -0.03540000      -0.39090000      -2.11910000
H        0.03540000      -3.02500000      -1.35320000
H        0.09570000      -4.01250000       1.72300000
H        0.07820000      -2.28690000       3.86900000
