23
Properties=species:S:1:pos:R:3 gdb_114101=T pbc="F F F"
C       -0.02870000       1.46360000      -0.33960000
C        0.03720000      -0.04550000      -0.07890000
C       -1.33420000      -0.63300000       0.20240000
O       -2.24410000      -0.52150000      -0.92780000
C       -2.62690000      -1.91760000      -0.82410000
C       -4.11790000      -2.10020000      -0.71170000
C       -1.80560000      -2.79980000      -1.80230000
C       -0.75500000      -3.05250000      -0.67580000
C       -1.56540000      -2.15550000       0.29700000
H        0.96100000       1.87030000      -0.56750000
H       -0.68910000       1.67460000      -1.18540000
H       -0.41920000       1.99950000       0.53270000
H        0.48060000      -0.54700000      -0.94580000
H        0.68730000      -0.25580000       0.78110000
H       -1.77140000      -0.11640000       1.07190000
H       -4.60900000      -1.75580000      -1.62920000
H       -4.37380000      -3.15460000      -0.56480000
H       -4.52130000      -1.52150000       0.12490000
H       -2.32190000      -3.70390000      -2.13750000
H       -1.45180000      -2.24800000      -2.67570000
H       -0.72780000      -4.09430000      -0.34800000
H        0.27090000      -2.74230000      -0.88580000
H       -1.79390000      -2.55770000       1.28420000
