16
Properties=species:S:1:pos:R:3 gdb_4469=T pbc="F F F"
C        0.08690000       1.56030000       0.06700000
C        0.02800000       0.06630000       0.05550000
C       -0.05030000      -0.72330000      -1.04570000
N       -0.09140000      -0.42200000      -2.40610000
O       -0.08720000      -2.06670000      -0.65390000
C       -0.02690000      -2.08090000       0.69560000
N       -0.13510000      -3.33680000       1.28240000
C        0.04870000      -0.81670000       1.19640000
H        1.00830000       1.92330000       0.53780000
H        0.04820000       1.94760000      -0.95370000
H       -0.74960000       1.99060000       0.63030000
H       -0.93010000      -0.77190000      -2.85940000
H        0.70990000      -0.78300000      -2.91520000
H        0.31420000      -4.05990000       0.73410000
H        0.20940000      -3.34870000       2.23260000
H        0.10960000      -0.53750000       2.23670000
