21
Properties=species:S:1:pos:R:3 gdb_30684=T pbc="F F F"
C        0.24880000       1.59210000      -0.06050000
C        0.25800000       0.06180000       0.00130000
C        0.60670000      -0.52610000       1.39040000
C       -0.44350000      -0.16900000       2.45170000
C        0.82310000      -2.01450000       1.29080000
C        0.06470000      -3.01790000       1.81240000
O        0.57550000      -4.23960000       1.49230000
C        1.68860000      -4.01320000       0.74850000
C        1.89180000      -2.68160000       0.59040000
H        1.21110000       2.00690000       0.26130000
H        0.06540000       1.93760000      -1.08280000
H       -0.52870000       2.02700000       0.57480000
H       -0.71850000      -0.33270000      -0.30880000
H        0.98130000      -0.32030000      -0.72850000
H        1.56190000      -0.07510000       1.69860000
H       -0.52480000       0.91290000       2.58300000
H       -1.43310000      -0.54390000       2.16560000
H       -0.18480000      -0.60430000       3.42150000
H       -0.82770000      -3.03490000       2.41490000
H        2.21710000      -4.89180000       0.41670000
H        2.70300000      -2.21690000       0.05080000
