20
Properties=species:S:1:pos:R:3 gdb_59448=T pbc="F F F"
C        0.05950000       1.41750000       0.30630000
C       -0.03370000      -0.10360000       0.40670000
O        0.31980000      -0.54550000       1.73160000
C       -1.39500000      -0.62720000       0.00210000
C       -1.69730000      -0.97620000      -1.43850000
C       -1.62210000      -2.06550000      -0.40830000
C       -0.52910000      -3.11790000      -0.49860000
N        0.20520000      -3.27620000       0.64060000
O       -0.38460000      -3.80830000      -1.48940000
H        1.04700000       1.76100000       0.62520000
H       -0.11530000       1.74970000      -0.72130000
H       -0.69370000       1.89640000       0.94410000
H        0.73220000      -0.55510000      -0.23330000
H       -0.34390000      -0.20290000       2.34120000
H       -2.21070000      -0.16740000       0.56020000
H       -2.66260000      -0.70620000      -1.85080000
H       -0.87930000      -0.92400000      -2.15020000
H       -2.56780000      -2.50100000      -0.09620000
H        0.24450000      -2.52810000       1.32280000
H        0.97910000      -3.92080000       0.58850000
