15
Properties=species:S:1:pos:R:3 gdb_44156=T pbc="F F F"
N        0.11640000       1.16480000      -0.01000000
C        0.01220000      -0.07910000       0.06300000
O        0.98530000      -1.05890000       0.29810000
C        0.00690000      -2.09530000       0.03210000
C       -1.07520000      -2.05700000       1.05100000
C       -0.85470000      -1.64660000       2.50030000
C       -0.57110000      -2.80320000       3.34980000
N       -0.35750000      -3.73010000       4.00550000
C       -1.09650000      -1.06420000      -0.11780000
H        1.07870000       1.47160000       0.14080000
H        0.31990000      -2.92670000      -0.58370000
H       -1.81650000      -2.84110000       0.91610000
H       -0.01800000      -0.94570000       2.56950000
H       -1.74170000      -1.13380000       2.88780000
H       -1.92560000      -0.98190000      -0.80470000
