15
Properties=species:S:1:pos:R:3 gdb_1044=T pbc="F F F"
C        0.27470000       1.07130000       0.53580000
N       -0.11680000       0.12990000      -0.52170000
C       -1.32770000      -0.55650000      -0.30460000
C       -2.63140000      -0.31360000      -0.68380000
C       -3.42650000      -1.38960000      -0.19370000
C       -2.59120000      -2.24880000       0.47920000
N       -1.31880000      -1.73500000       0.40400000
H        1.23030000       1.53270000       0.26920000
H       -0.46550000       1.86580000       0.71690000
H        0.41560000       0.52610000       1.47360000
H       -0.15030000       0.60690000      -1.41410000
H       -2.97300000       0.54480000      -1.24260000
H       -4.49220000      -1.51100000      -0.31380000
H       -2.78900000      -3.17110000       1.00060000
H       -0.47740000      -2.17800000       0.73030000
