23
Properties=species:S:1:pos:R:3 gdb_99998=T pbc="F F F"
C        0.03970000       1.57510000      -0.15130000
C        0.02570000       0.04400000       0.03650000
C        0.54570000      -0.56980000      -1.25170000
O       -0.10880000      -1.24020000      -2.00850000
C        0.80230000      -0.49080000       1.28670000
C        0.85540000      -2.03160000       1.22500000
C        2.23370000       0.07100000       1.38720000
C        0.00850000      -0.08560000       2.54500000
O        0.67490000      -0.59550000       3.69160000
H        1.03980000       1.94290000      -0.40100000
H       -0.63150000       1.85960000      -0.96730000
H       -0.29290000       2.09900000       0.74790000
H       -1.01390000      -0.29410000       0.12170000
H        1.60760000      -0.32330000      -1.48800000
H        1.49250000      -2.37920000       0.40550000
H        1.25350000      -2.43090000       2.15980000
H       -0.14300000      -2.45450000       1.06860000
H        2.23950000       1.16240000       1.46870000
H        2.72050000      -0.32720000       2.27990000
H        2.84020000      -0.20640000       0.51970000
H       -0.07240000       1.00950000       2.60620000
H       -1.01320000      -0.49230000       2.47130000
H        0.18270000      -0.32490000       4.47140000
