16
Properties=species:S:1:pos:R:3 gdb_127299=T pbc="F F F"
C        0.07530000       1.42870000      -0.07770000
N       -0.00350000      -0.01860000      -0.04030000
C       -1.16750000      -0.71120000       0.08240000
C       -1.19800000      -2.06640000       0.11380000
C        0.02200000      -2.83270000       0.01670000
N        0.06060000      -4.12010000       0.04020000
C        1.19700000      -1.94690000      -0.11110000
O        2.38560000      -2.57360000      -0.20830000
N        1.19410000      -0.65430000      -0.13810000
H        0.68630000       1.80070000       0.75080000
H        0.52270000       1.76380000      -1.01870000
H       -0.93070000       1.84180000       0.00670000
H       -2.06090000      -0.10270000       0.15250000
H       -2.13750000      -2.59380000       0.21210000
H        1.02660000      -4.43840000      -0.04280000
H        3.06570000      -1.89050000      -0.28580000
