20
Properties=species:S:1:pos:R:3 gdb_118627=T pbc="F F F"
C       -0.05840000       1.26740000       0.23610000
C        0.02670000      -0.24900000       0.04350000
C        0.66090000      -0.62780000      -1.29910000
C        0.79650000      -2.15350000      -1.52330000
N       -0.46630000      -2.85490000      -1.63030000
C       -1.00820000      -3.53180000      -0.58120000
O       -0.61660000      -3.46640000       0.56550000
C        1.59830000      -2.38990000      -2.78930000
O        1.17240000      -2.96650000      -3.75860000
H        0.93460000       1.73040000       0.21170000
H       -0.66080000       1.73640000      -0.55000000
H       -0.51700000       1.51560000       1.19800000
H        0.60560000      -0.70060000       0.85710000
H       -0.97340000      -0.68850000       0.11030000
H        0.07360000      -0.20460000      -2.12460000
H        1.66270000      -0.18140000      -1.36740000
H        1.35500000      -2.57380000      -0.67530000
H       -0.72270000      -3.13150000      -2.56910000
H       -1.87470000      -4.14780000      -0.89070000
H        2.61940000      -1.95390000      -2.77740000
