21
Properties=species:S:1:pos:R:3 gdb_82822=T pbc="F F F"
C       -0.17800000       1.54470000      -0.01630000
C        0.07170000       0.04510000       0.00650000
C        1.17150000      -0.55040000      -0.90690000
O        2.41610000       0.17880000      -0.79200000
C        2.76660000      -0.53980000       0.41320000
C        2.07160000       0.05340000       1.65670000
C        0.74520000      -0.64980000       1.23950000
C       -0.15260000      -1.18760000       2.32980000
C        1.58470000      -1.53080000       0.22300000
H        0.76610000       2.09440000       0.01960000
H       -0.69820000       1.84090000      -0.93410000
H       -0.79620000       1.86140000       0.83100000
H       -0.85780000      -0.50320000      -0.19940000
H        0.93890000      -0.79570000      -1.94560000
H        3.83050000      -0.78280000       0.44820000
H        2.46800000      -0.40810000       2.56860000
H        2.08530000       1.14070000       1.77050000
H       -0.62340000      -0.37000000       2.88980000
H       -0.95490000      -1.81030000       1.91770000
H        0.40900000      -1.79580000       3.04810000
H        1.62990000      -2.61590000       0.17540000
