19
Properties=species:S:1:pos:R:3 gdb_103410=T pbc="F F F"
C       -0.04490000       1.57810000      -0.04230000
C       -0.01500000       0.05510000      -0.01750000
C       -1.39950000      -0.56080000       0.20210000
O       -1.93000000      -0.30350000       1.49130000
C        0.72400000      -0.63770000      -1.17810000
O        2.09830000      -0.22510000      -1.12950000
C        1.67230000      -1.30300000      -0.27200000
C        1.06050000      -0.61490000       0.95600000
O        1.91570000       0.22000000       1.68390000
H        0.92380000       1.98250000      -0.34480000
H       -0.79810000       1.94710000      -0.74850000
H       -0.26930000       1.98430000       0.94980000
H       -2.08600000      -0.21800000      -0.58970000
H       -1.33870000      -1.65280000       0.12400000
H       -2.04190000       0.64760000       1.58460000
H        0.34330000      -0.95820000      -2.14190000
H        2.20930000      -2.24040000      -0.36130000
H        0.58130000      -1.29080000       1.66660000
H        2.46900000       0.67170000       1.03390000
