18
Properties=species:S:1:pos:R:3 gdb_10858=T pbc="F F F"
O       -0.05520000       1.44790000       0.00770000
C        0.00700000       0.02380000      -0.02800000
C       -1.42720000      -0.49630000       0.03970000
C       -1.46910000      -1.99670000      -0.26610000
C       -0.94460000      -2.30440000      -1.67780000
O       -1.93770000      -2.08850000      -2.68750000
C        0.29870000      -1.51180000      -1.99750000
C        0.70720000      -0.47020000      -1.27330000
H        0.84520000       1.78850000       0.01150000
H        0.55940000      -0.34450000       0.85580000
H       -1.85530000      -0.27580000       1.02170000
H       -2.02030000       0.06240000      -0.69530000
H       -0.85420000      -2.53710000       0.46570000
H       -2.48790000      -2.38590000      -0.18300000
H       -0.72570000      -3.37620000      -1.74980000
H       -2.00600000      -1.13730000      -2.82360000
H        0.83520000      -1.80210000      -2.89750000
H        1.60260000       0.07810000      -1.56520000
