16
Properties=species:S:1:pos:R:3 gdb_4491=T pbc="F F F"
C        0.12450000       1.44930000       0.04190000
C       -0.06370000      -0.02580000       0.02250000
C       -1.16850000      -0.81470000      -0.08100000
C       -0.70640000      -2.17490000      -0.05550000
N       -1.49580000      -3.33300000      -0.06000000
C        0.65010000      -2.11730000       0.06060000
N        1.58820000      -3.14710000       0.14050000
O        1.05420000      -0.79070000       0.12200000
H        0.74770000       1.78790000      -0.79420000
H       -0.84430000       1.94890000      -0.03080000
H        0.61230000       1.78100000       0.96580000
H       -2.19060000      -0.47610000      -0.15930000
H       -2.23200000      -3.30230000      -0.75470000
H       -0.92140000      -4.15470000      -0.21050000
H        2.03860000      -3.20880000       1.04940000
H        2.31690000      -3.06960000      -0.56240000
