20
Properties=species:S:1:pos:R:3 gdb_52095=T pbc="F F F"
O        0.29580000       0.71510000       1.42220000
C        0.18770000       1.45840000       0.47010000
N        1.15620000       1.70560000      -0.45220000
C        2.49130000       1.13010000      -0.38020000
C        3.56230000       2.16710000      -0.13930000
C        3.71360000       3.11180000       1.09300000
C        4.91350000       3.44170000       0.16080000
C        5.09690000       1.90960000      -0.03320000
C        3.91450000       3.40350000      -1.02960000
H       -0.74100000       2.02080000       0.24590000
H        0.95460000       2.36780000      -1.18450000
H        2.46650000       0.40740000       0.43950000
H        2.70780000       0.58050000      -1.30610000
H        2.95310000       3.88840000       1.21070000
H        3.94640000       2.63200000       2.04740000
H        5.69640000       4.18000000       0.33350000
H        5.43590000       1.33990000       0.83660000
H        5.60370000       1.58560000      -0.94710000
H        4.33400000       3.19340000      -2.01830000
H        3.17410000       4.20850000      -1.07120000
