21
Properties=species:S:1:pos:R:3 gdb_72479=T pbc="F F F"
C       -0.03560000       1.49650000       0.05600000
C        0.00820000      -0.01920000      -0.02660000
C        0.77010000      -0.60660000      -1.22430000
C        0.90820000      -2.04700000      -0.70660000
C        1.32820000      -1.77980000       0.75180000
O        0.74370000      -0.51840000       1.10160000
C       -0.48230000      -2.69960000      -0.74880000
O       -1.38240000      -2.04490000       0.13040000
C       -1.41020000      -0.63340000      -0.00610000
H        0.97720000       1.90650000       0.01060000
H       -0.61850000       1.91670000      -0.76960000
H       -0.49120000       1.81670000       0.99780000
H        0.22150000      -0.53600000      -2.16780000
H        1.74040000      -0.11350000      -1.34220000
H        1.63350000      -2.65370000      -1.25510000
H        0.96750000      -2.55420000       1.43820000
H        2.41940000      -1.70610000       0.85050000
H       -0.86580000      -2.69350000      -1.78360000
H       -0.44510000      -3.73960000      -0.40930000
H       -1.96760000      -0.26430000       0.85970000
H       -1.95130000      -0.33540000      -0.92090000
