19
Properties=species:S:1:pos:R:3 gdb_96774=T pbc="F F F"
C        0.02580000       1.40700000      -0.02640000
N       -0.10080000      -0.04010000       0.09160000
C        0.47280000      -0.62640000       1.03910000
N        1.36780000      -0.15760000       2.09140000
C        0.79800000      -0.68820000       3.36430000
C        1.52510000      -1.62900000       2.50320000
C        0.66670000      -2.11870000       1.32570000
C       -0.54290000      -3.00340000       1.58290000
O        1.52500000      -2.69960000       0.35330000
H        0.69290000       1.85400000       0.71910000
H        0.39390000       1.64880000      -1.02920000
H       -0.96850000       1.85840000       0.06410000
H        1.31050000      -0.29740000       4.23760000
H       -0.28220000      -0.74990000       3.46600000
H        2.50500000      -2.02860000       2.73350000
H       -1.16500000      -2.62710000       2.39980000
H       -1.16400000      -3.04750000       0.68240000
H       -0.21370000      -4.01760000       1.82670000
H        1.16220000      -2.47590000      -0.51160000
