19
Properties=species:S:1:pos:R:3 gdb_72549=T pbc="F F F"
C        0.00300000       1.49780000       0.07190000
C        0.00520000      -0.00870000      -0.01940000
C        0.63790000      -0.72000000      -1.24420000
C        0.26760000      -2.09710000      -0.68290000
C        0.91390000      -2.06910000       0.71210000
N        0.68120000      -0.66380000       1.14320000
O       -1.16610000      -1.96390000      -0.47340000
C       -1.37090000      -0.66620000      -0.06290000
N       -2.48130000      -0.14180000       0.21250000
H        1.02670000       1.88820000       0.08690000
H       -0.52120000       1.93480000      -0.78110000
H       -0.51090000       1.81580000       0.98190000
H        0.14430000      -0.50670000      -2.19560000
H        1.71440000      -0.54890000      -1.32900000
H        0.44320000      -2.98560000      -1.28600000
H        0.41610000      -2.77720000       1.38200000
H        1.97830000      -2.32550000       0.66690000
H        1.56650000      -0.19340000       1.30080000
H       -3.23980000      -0.81850000       0.10750000
