18
Properties=species:S:1:pos:R:3 gdb_26160=T pbc="F F F"
C        0.08570000       1.27650000       1.08180000
C       -0.22380000       0.50200000      -0.19620000
O        0.81820000      -0.44540000      -0.50340000
C       -1.56220000      -0.18470000      -0.15240000
C       -1.94700000      -1.30310000      -0.86140000
N       -1.29530000      -2.08260000      -1.82290000
N       -3.26410000      -1.51590000      -0.52160000
C       -3.62120000      -0.53030000       0.36490000
N       -2.62510000       0.28140000       0.60240000
H        1.05480000       1.77450000       0.99210000
H       -0.69240000       2.01810000       1.27460000
H        0.11160000       0.60060000       1.94450000
H       -0.18420000       1.19800000      -1.04510000
H        0.87810000      -1.03970000       0.25420000
H       -0.32000000      -1.80100000      -1.85340000
H       -1.34330000      -3.07720000      -1.62530000
H       -3.86190000      -2.22600000      -0.91020000
H       -4.60720000      -0.48060000       0.80120000
