16
Properties=species:S:1:pos:R:3 gdb_16992=T pbc="F F F"
C        0.00920000       1.56300000       0.12760000
O        1.47570000       1.59240000      -0.14020000
C        1.23280000       0.37170000      -0.96210000
C        1.33930000      -1.20970000      -1.02050000
C        1.64330000      -1.69390000       0.39160000
C        0.66620000      -0.73600000       1.12650000
C        0.11220000       0.02660000      -0.09570000
O       -0.16320000      -1.12930000      -1.03140000
H       -0.22200000       1.92650000       1.13190000
H       -0.53720000       2.12020000      -0.63920000
H        0.92750000       0.70730000      -1.95650000
H        1.73170000      -1.73550000      -1.89140000
H        1.39090000      -2.74900000       0.51390000
H        2.69120000      -1.54750000       0.66700000
H       -0.14490000      -1.26160000       1.63580000
H        1.16620000      -0.07540000       1.83640000
