16
Properties=species:S:1:pos:R:3 gdb_45726=T pbc="F F F"
O        0.05140000      -0.04880000       0.09480000
C        0.00510000       1.16350000       0.01540000
C       -1.29420000       1.89580000      -0.28620000
C       -1.19090000       3.38790000      -0.36750000
C       -0.05180000       4.05150000      -0.21800000
C        1.26830000       3.37700000       0.06400000
N        1.11760000       1.93400000       0.21610000
C        2.25750000       3.70290000      -0.97580000
C        3.08020000       3.96980000      -1.80970000
H       -1.68410000       1.47860000      -1.22330000
H       -2.01900000       1.59170000       0.47970000
H       -2.10920000       3.93600000      -0.56220000
H       -0.00570000       5.13210000      -0.29470000
H        1.65450000       3.78510000       1.01290000
H        1.96170000       1.39970000       0.36720000
H        3.80190000       4.20210000      -2.55380000
