18
Properties=species:S:1:pos:R:3 gdb_62267=T pbc="F F F"
O       -1.15560000       0.60320000      -0.03580000
C        0.05590000      -0.11910000      -0.19540000
C        1.04700000       0.59640000      -1.13630000
N        0.54810000       0.84330000      -2.47980000
C        0.42300000      -0.33120000      -3.32930000
C        0.25990000       0.08090000      -4.78500000
O       -0.36280000      -0.54390000      -5.60200000
C        0.68760000      -0.45090000       1.15240000
O        1.81930000      -0.83600000       1.29200000
H       -0.94820000       1.46020000       0.35520000
H       -0.24090000      -1.07760000      -0.64320000
H        1.31440000       1.56170000      -0.68390000
H        1.96860000       0.00870000      -1.18600000
H       -0.34870000       1.31520000      -2.41170000
H        1.36730000      -0.89400000      -3.27430000
H       -0.38510000      -1.03510000      -3.07550000
H        0.78900000       1.02760000      -5.03590000
H       -0.00150000      -0.30250000       2.01640000
