17
Properties=species:S:1:pos:R:3 gdb_71903=T pbc="F F F"
O        0.00540000       1.40730000       0.01830000
C        0.00620000       0.01520000       0.00370000
C        0.45990000      -0.72850000      -1.28300000
C       -0.67840000      -1.75920000      -1.07660000
O       -0.36430000      -2.70650000      -0.03410000
C       -0.73110000      -1.78100000       1.01090000
C        0.39490000      -0.75550000       1.29590000
C       -1.34830000      -0.79150000      -0.03890000
O       -2.57400000      -0.17900000      -0.06340000
H        0.92020000       1.71060000       0.03880000
H        0.24330000      -0.10060000      -2.15340000
H        1.47960000      -1.11880000      -1.33840000
H       -1.13950000      -2.23300000      -1.94500000
H       -1.23510000      -2.27260000       1.84480000
H        1.41070000      -1.14740000       1.39460000
H        0.13430000      -0.14560000       2.16700000
H       -3.25960000      -0.85690000      -0.08770000
