18
Properties=species:S:1:pos:R:3 gdb_90791=T pbc="F F F"
C       -0.11720000       1.56260000       0.09460000
C        0.03990000       0.05210000      -0.00520000
C        0.90600000      -0.46480000      -1.19830000
C        1.61560000      -1.67800000      -0.59780000
C        1.10860000      -1.91950000       0.77510000
C        2.55020000      -1.45610000       0.63270000
C        2.10690000      -0.17640000       1.25750000
O        2.62210000       0.81210000       1.68950000
N        0.69410000      -0.55170000       1.19750000
H        0.85100000       2.05690000       0.20470000
H       -0.60340000       1.94800000      -0.80710000
H       -0.73230000       1.82820000       0.95850000
H       -0.95110000      -0.41200000      -0.06690000
H        0.28630000      -0.75780000      -2.05110000
H        1.61070000       0.29750000      -1.54720000
H        1.90950000      -2.51200000      -1.22630000
H        0.70780000      -2.81360000       1.23050000
H        3.48290000      -1.99370000       0.74520000
