18
Properties=species:S:1:pos:R:3 gdb_37413=T pbc="F F F"
C       -0.02000000       1.48980000       0.07210000
C        1.51640000       1.38490000      -0.00670000
C        1.77990000       0.73230000       1.36550000
C        0.76640000      -0.45640000       1.17960000
C        1.63850000      -1.58130000       0.62800000
O        1.14620000      -2.27310000      -0.51530000
C        1.99370000      -1.12900000      -0.71940000
C        1.19180000       0.13670000      -0.91720000
N       -0.03440000      -0.01740000      -0.02380000
H       -0.47130000       1.90950000       0.97590000
H       -0.49870000       1.90960000      -0.81580000
H        2.16640000       2.20360000      -0.32050000
H        2.80770000       0.38940000       1.51350000
H        1.52060000       1.40600000       2.18640000
H        0.13050000      -0.68940000       2.03310000
H        2.30900000      -2.13240000       1.28140000
H        2.94760000      -1.30920000      -1.20490000
H        0.91220000       0.38990000      -1.94120000
