21
Properties=species:S:1:pos:R:3 gdb_104593=T pbc="F F F"
C        1.12860000       0.18840000      -1.05970000
O        0.26160000       0.25140000       0.05820000
C        0.57920000      -0.63460000       1.10000000
C        1.77040000      -0.22690000       1.96760000
C        1.41340000       0.94600000       2.88210000
C        1.42640000       2.32650000       2.25960000
O        1.10580000       0.75560000       4.03710000
C       -0.61070000      -1.25840000       1.76270000
C        0.28520000      -2.09870000       0.87410000
H        1.17470000      -0.82580000      -1.47820000
H        0.72140000       0.86820000      -1.81160000
H        2.15090000       0.50950000      -0.81590000
H        2.05080000      -1.06530000       2.60910000
H        2.62790000       0.02060000       1.33110000
H        2.43900000       2.57450000       1.91920000
H        0.78290000       2.33060000       1.37360000
H        1.09060000       3.06980000       2.98350000
H       -0.57220000      -1.40200000       2.83640000
H       -1.58190000      -0.98460000       1.36790000
H       -0.10960000      -2.37740000      -0.09650000
H        0.93340000      -2.83870000       1.33040000
