16
Properties=species:S:1:pos:R:3 gdb_2534=T pbc="F F F"
C       -0.10180000       1.55480000       0.11740000
C        0.03170000       0.03310000       0.03930000
C        0.71660000      -0.42240000      -1.25600000
O        2.02860000       0.08870000      -1.26970000
C        2.70610000      -0.07430000      -2.50340000
C        0.71840000      -1.90190000      -1.36010000
N        0.72820000      -3.05430000      -1.44570000
H        0.87840000       2.03340000       0.06140000
H       -0.71680000       1.94150000      -0.70290000
H       -0.57630000       1.84960000       1.05730000
H        0.61900000      -0.34700000       0.88150000
H       -0.95150000      -0.44630000       0.09070000
H        0.14980000      -0.04080000      -2.12300000
H        3.68750000       0.38880000      -2.38610000
H        2.83610000      -1.13460000      -2.75780000
H        2.16830000       0.42360000      -3.32390000
