15
Properties=species:S:1:pos:R:3 gdb_66750=T pbc="F F F"
O       -0.15490000       1.42900000       0.01620000
C       -0.04270000       0.06420000       0.00680000
C       -1.26300000      -0.90240000       0.05040000
C       -0.35560000      -1.86020000       0.78440000
C       -0.41540000      -1.85450000      -0.75870000
C        0.68720000      -0.83330000      -1.10070000
C        1.80780000      -1.06320000      -0.06910000
O        3.00010000      -1.14720000      -0.11560000
C        0.77040000      -0.84130000       1.04770000
H        0.72520000       1.82340000      -0.01580000
H       -2.33070000      -0.74360000       0.09240000
H       -0.61430000      -2.72770000       1.37560000
H       -0.71930000      -2.71750000      -1.33450000
H        0.86080000      -0.53740000      -2.13240000
H        1.02340000      -0.55310000       2.06510000
