19
Properties=species:S:1:pos:R:3 gdb_106452=T pbc="F F F"
C        0.66660000       1.63280000      -0.38210000
O        0.47520000       0.23460000      -0.24840000
C        0.87410000      -0.49350000      -1.34200000
C        0.29890000      -0.48220000      -2.79680000
C        1.36840000      -1.61280000      -2.74990000
C        2.29640000      -0.62720000      -1.97700000
C        0.74690000      -2.05520000      -1.39290000
C        1.50980000      -2.89610000      -0.40930000
O        2.62990000      -3.31930000      -0.56250000
H        1.72610000       1.88190000      -0.53010000
H        0.08750000       2.04080000      -1.22180000
H        0.31870000       2.09010000       0.54600000
H       -0.74380000      -0.78760000      -2.91540000
H        0.54650000       0.38300000      -3.41660000
H        1.65820000      -2.27100000      -3.56380000
H        2.64930000       0.23420000      -2.54950000
H        3.08460000      -1.06760000      -1.36970000
H       -0.29570000      -2.39450000      -1.42810000
H        0.93970000      -3.12580000       0.52030000
