20
Properties=species:S:1:pos:R:3 gdb_12414=T pbc="F F F"
C       -0.03050000       1.57500000       0.01260000
C        0.03150000       0.04680000       0.00800000
C        0.73100000      -0.50690000      -1.24710000
C        0.89380000      -2.02630000      -1.16260000
O        1.54760000      -2.42160000       0.03980000
C        0.80500000      -2.03220000       1.18880000
C        0.74110000      -0.50570000       1.26480000
O        2.05720000       0.01840000       1.40450000
H        0.97690000       1.99590000       0.07510000
H       -0.50980000       1.95470000      -0.89590000
H       -0.59990000       1.94400000       0.87270000
H       -0.99520000      -0.34900000       0.02730000
H        0.16700000      -0.24520000      -2.14990000
H        1.72040000      -0.04310000      -1.34550000
H       -0.09280000      -2.51690000      -1.22010000
H        1.50820000      -2.41000000      -1.98210000
H       -0.20780000      -2.46640000       1.16140000
H        1.33890000      -2.43790000       2.05280000
H        0.19060000      -0.20110000       2.16350000
H        2.62510000      -0.53840000       0.85730000
