16
Properties=species:S:1:pos:R:3 gdb_16508=T pbc="F F F"
C       -0.03080000       1.49220000       0.04260000
C       -0.00820000      -0.01070000      -0.07210000
C        0.95180000      -0.73210000      -0.94520000
C        0.53780000      -1.99030000      -1.15710000
C       -0.67770000      -2.21500000      -0.29870000
O       -0.16270000      -2.20560000       1.10790000
C       -0.49320000      -0.84310000       1.18630000
C       -1.29770000      -0.80680000      -0.06270000
H        0.93450000       1.88030000       0.38560000
H       -0.25870000       1.96360000      -0.92040000
H       -0.79120000       1.82310000       0.75830000
H        1.89170000      -0.30220000      -1.27230000
H        1.07790000      -2.77860000      -1.66450000
H       -1.30520000      -3.08840000      -0.46640000
H       -0.58440000      -0.39450000       2.16880000
H       -2.28570000      -0.43820000      -0.31110000
