13
Properties=species:S:1:pos:R:3 gdb_130691=T pbc="F F F"
O       -0.08080000      -0.08120000       0.00510000
C        0.00700000       1.12380000       0.00970000
N       -1.06480000       2.01670000       0.02840000
C       -0.71790000       3.43500000       0.03020000
C        0.77000000       3.30280000       0.00910000
C        1.19300000       2.01750000      -0.00270000
C        2.60570000       2.14770000      -0.02180000
N        2.97250000       3.40860000      -0.02090000
O        1.76840000       4.16860000      -0.00070000
H       -2.01270000       1.67940000       0.03960000
H       -1.10480000       3.96480000      -0.85010000
H       -1.08040000       3.95660000       0.92560000
H        3.37470000       1.38880000      -0.03600000
