17
Properties=species:S:1:pos:R:3 gdb_89676=T pbc="F F F"
O        0.10240000       1.44630000       0.02480000
C        0.03730000       0.03850000       0.07960000
C        0.25210000      -0.54940000       1.50300000
C       -1.07970000      -1.30860000       1.38550000
C       -2.18770000      -0.27790000       1.15680000
C       -1.32990000      -0.63000000      -0.00440000
O       -1.77280000      -1.11680000      -1.21380000
C       -1.33890000      -2.63300000       1.82020000
C       -1.54490000      -3.76680000       2.17220000
H       -0.06930000       1.71960000      -0.88240000
H        0.71790000      -0.42650000      -0.64590000
H        1.12570000      -1.19780000       1.57580000
H        0.28640000       0.20460000       2.29470000
H       -3.18510000      -0.70930000       1.13730000
H       -2.12670000       0.69960000       1.63130000
H       -2.72200000      -1.26800000      -1.16970000
H       -1.72660000      -4.76390000       2.48710000
