21
Properties=species:S:1:pos:R:3 gdb_74213=T pbc="F F F"
C       -0.49340000       1.42070000       0.06030000
C        0.07520000       0.02160000       0.03950000
C        0.05460000      -0.66450000      -1.11760000
C        0.44160000      -2.04420000      -1.49430000
O        0.09110000      -2.44920000      -2.59020000
C        1.29980000      -2.95230000      -0.62200000
C        1.12030000      -2.89570000       0.89680000
C        1.55800000      -1.56790000       1.52100000
C        0.54040000      -0.43210000       1.40350000
H        0.28430000       2.14870000       0.32460000
H       -0.92210000       1.70670000      -0.90200000
H       -1.27270000       1.51150000       0.82780000
H       -0.38660000      -0.16750000      -1.97890000
H        1.13450000      -3.96500000      -0.99990000
H        2.34470000      -2.70360000      -0.86130000
H        0.07760000      -3.11080000       1.16570000
H        1.71760000      -3.70580000       1.33000000
H        1.75510000      -1.71670000       2.58910000
H        2.51160000      -1.25510000       1.07580000
H        0.93940000       0.44710000       1.92610000
H       -0.36420000      -0.70220000       1.97200000
