17
Properties=species:S:1:pos:R:3 gdb_88310=T pbc="F F F"
O        0.11990000       1.32360000      -0.12630000
C        0.01080000      -0.04410000      -0.01910000
C       -0.37340000      -0.72520000       1.23890000
C       -1.38190000      -0.72880000       0.07960000
C       -2.54040000       0.17860000       0.17380000
O       -2.47290000       1.26480000       0.72330000
C       -3.82800000      -0.31630000      -0.49870000
C       -4.95020000       0.60170000      -0.42340000
C       -5.88460000       1.35300000      -0.36560000
H       -0.64440000       1.71020000       0.33560000
H        0.71550000      -0.54160000      -0.67770000
H        0.07690000      -1.67870000       1.49150000
H       -0.64070000      -0.09470000       2.08080000
H       -1.52740000      -1.65820000      -0.45930000
H       -3.58230000      -0.54660000      -1.54530000
H       -4.08470000      -1.28470000      -0.04660000
H       -6.70570000       2.02410000      -0.31130000
