14
Properties=species:S:1:pos:R:3 gdb_97530=T pbc="F F F"
N       -1.61170000      -0.00890000       0.05050000
H       -1.60090000      -0.80360000       0.68430000
H       -1.63860000      -0.39730000      -0.88860000
H       -2.50840000       0.44970000       0.19040000
C        0.72430000       2.29030000       0.58830000
C        0.33080000       3.50260000       0.91070000
C       -0.06290000       4.65540000       1.21780000
C       -0.48730000       5.87740000       1.54340000
C       -1.88490000       6.16740000       1.65170000
N       -3.01690000       6.39480000       1.73740000
C        0.43500000       6.94210000       1.79630000
N        1.18320000       7.80160000       2.00030000
H        0.00170000       1.48890000       0.39860000
H        1.78380000       2.06200000       0.50400000
