18
Properties=species:S:1:pos:R:3 gdb_47486=T pbc="F F F"
N       -0.11620000       1.25090000       0.34180000
C       -0.01130000       0.04620000      -0.02990000
C        1.29370000      -0.72610000      -0.20370000
O        1.23350000      -1.79720000      -1.12160000
C        0.11760000      -2.62770000      -0.84280000
C       -1.14430000      -1.82570000      -0.98310000
C       -1.84750000      -1.69640000      -2.30540000
C       -2.48190000      -2.46260000      -1.15850000
O       -1.15990000      -0.66830000      -0.16020000
H        0.80740000       1.66720000       0.45730000
H        2.07130000      -0.04540000      -0.55700000
H        1.58910000      -1.09490000       0.79510000
H        0.13970000      -3.44930000      -1.56240000
H        0.19620000      -3.04690000       0.17450000
H       -2.26480000      -0.72460000      -2.54080000
H       -1.45800000      -2.24890000      -3.15360000
H       -2.53440000      -3.54470000      -1.21400000
H       -3.30950000      -1.99060000      -0.64190000
