18
Properties=species:S:1:pos:R:3 gdb_31054=T pbc="F F F"
C        0.07750000       1.46800000      -0.01020000
N       -0.27940000       0.07440000       0.22160000
C        0.48690000      -0.66170000       1.10840000
C        0.77070000      -1.99290000       1.07740000
N        0.45290000      -2.99010000       0.16420000
O        1.49520000      -2.27160000       2.24520000
C        1.60900000      -1.08410000       2.86720000
C        2.36210000      -1.03440000       4.14850000
N        1.03350000      -0.09430000       2.25090000
H        1.04960000       1.59990000      -0.51130000
H       -0.69730000       1.93430000      -0.62450000
H        0.12100000       1.98780000       0.94820000
H       -0.45780000      -0.44980000      -0.62460000
H       -0.19330000      -3.68550000       0.52540000
H        1.26570000      -3.47160000      -0.20720000
H        1.91270000      -1.69580000       4.89670000
H        3.40060000      -1.35410000       4.01000000
H        2.35220000      -0.01150000       4.52570000
