20
Properties=species:S:1:pos:R:3 gdb_47053=T pbc="F F F"
O       -0.03660000       0.75350000      -1.43440000
C       -0.08510000       1.30240000      -0.35990000
C       -1.39620000       1.89290000       0.17310000
N       -1.19410000       2.52620000       1.47150000
C       -0.19220000       3.57860000       1.37780000
C        0.34670000       4.05020000       2.75250000
C        1.61660000       3.17680000       2.54750000
C        1.19410000       2.92580000       1.06940000
C        1.10880000       1.47620000       0.56390000
H       -1.78280000       2.57110000      -0.61050000
H       -2.11730000       1.07290000       0.26530000
H       -2.06930000       2.88940000       1.83380000
H       -0.48760000       4.38680000       0.68670000
H        0.55790000       5.12200000       2.77390000
H       -0.28240000       3.79930000       3.60990000
H        2.57640000       3.67620000       2.69700000
H        1.60870000       2.26220000       3.14560000
H        1.77180000       3.53420000       0.36860000
H        0.94150000       0.80980000       1.41960000
H        2.01310000       1.14630000       0.04800000
