20
Properties=species:S:1:pos:R:3 gdb_120801=T pbc="F F F"
C        0.28690000       1.32830000      -0.32110000
O        0.28600000      -0.07060000      -0.17270000
C        0.47280000      -0.47930000       1.16570000
C        0.46220000      -1.98510000       1.19510000
N        1.75710000      -2.67550000       1.08750000
C        0.97850000      -2.80620000       2.32290000
C        1.58640000      -2.22140000       3.59220000
C        2.41470000      -3.19000000       4.30330000
C        3.08070000      -4.00810000       4.87890000
H        1.24410000       1.77300000      -0.00560000
H        0.12980000       1.54530000      -1.38050000
H       -0.51880000       1.80310000       0.26210000
H        1.42680000      -0.09630000       1.55840000
H       -0.33770000      -0.08040000       1.80230000
H       -0.38000000      -2.40590000       0.64760000
H        1.68250000      -3.51050000       0.51420000
H        0.46180000      -3.74920000       2.49380000
H        2.18740000      -1.34360000       3.33420000
H        0.78160000      -1.87510000       4.25430000
H        3.67940000      -4.72080000       5.38950000
