16
Properties=species:S:1:pos:R:3 gdb_127706=T pbc="F F F"
C       -0.03410000       1.46830000      -0.01930000
N       -0.00850000       0.01460000       0.06550000
N       -0.03660000      -0.60390000      -1.15480000
N       -0.01960000      -1.85810000      -1.24500000
C        0.03010000      -2.71750000      -0.08620000
O        0.04420000      -3.91940000      -0.24800000
C        0.05900000      -2.03630000       1.18860000
C        0.03940000      -0.68240000       1.24850000
C        0.06710000       0.09460000       2.53220000
H        0.86450000       1.90620000       0.42500000
H       -0.07140000       1.71670000      -1.07910000
H       -0.91620000       1.87810000       0.48110000
H        0.09660000      -2.62970000       2.09350000
H        0.10460000      -0.59580000       3.37600000
H        0.94160000       0.75170000       2.58600000
H       -0.82310000       0.72320000       2.64110000
