19
Properties=species:S:1:pos:R:3 gdb_38796=T pbc="F F F"
C       -0.02640000       1.55490000       0.07470000
C        1.52580000       1.46650000      -0.01930000
C        2.08680000       1.34790000       1.40970000
C        1.84090000      -0.08750000       1.86180000
O        2.81580000      -0.90830000       1.14510000
C        1.80580000      -1.17440000       0.17110000
C        1.36730000       0.04120000      -0.71080000
C       -0.04540000       0.02650000      -0.03470000
C        0.64390000      -0.78910000       1.10590000
H       -0.44570000       2.03540000       0.96550000
H       -0.47130000       2.00810000      -0.81630000
H        2.03160000       2.23410000      -0.60700000
H        3.16640000       1.52060000       1.45400000
H        1.60160000       2.08230000       2.06340000
H        1.90880000      -0.24290000       2.94160000
H        1.92490000      -2.13190000      -0.34200000
H        1.51900000       0.02650000      -1.79010000
H       -0.90450000      -0.48950000      -0.46810000
H        0.07400000      -1.50630000       1.69590000
