19
Properties=species:S:1:pos:R:3 gdb_39217=T pbc="F F F"
C       -0.03410000       1.63200000      -0.00050000
C        1.49370000       1.42980000      -0.08560000
C        2.25290000       1.52260000       1.25300000
C        2.26740000       0.21730000       2.07100000
C        0.93450000      -0.44610000       2.36270000
O       -0.22600000       0.37110000       2.53380000
C       -0.18000000      -0.52180000       1.40420000
C       -0.06760000       0.09270000       0.01220000
O        1.29340000       0.04670000      -0.49670000
H       -0.43470000       2.14610000       0.87160000
H       -0.45100000       2.04430000      -0.92050000
H        2.00820000       1.99770000      -0.86700000
H        3.29660000       1.79750000       1.06650000
H        1.82010000       2.33440000       1.84790000
H        2.88280000      -0.52600000       1.55250000
H        2.76340000       0.41960000       3.02840000
H        1.00590000      -1.25530000       3.09300000
H       -0.87190000      -1.35930000       1.49390000
H       -0.75560000      -0.40720000      -0.67630000
