20
Properties=species:S:1:pos:R:3 gdb_99648=T pbc="F F F"
C        0.00840000       1.47510000       0.12210000
N       -0.19220000       0.05650000      -0.16540000
C        0.72330000      -0.49440000      -1.15700000
C        2.14250000      -0.45800000      -0.71350000
N        3.22670000      -0.42180000      -0.31240000
C        0.32500000      -1.91820000      -1.51330000
N       -0.63730000      -2.06440000      -2.60700000
C        0.72350000      -2.60320000      -2.77310000
C        1.59310000      -1.99090000      -3.84580000
H        1.02510000       1.72850000       0.46260000
H       -0.20340000       2.05860000      -0.78030000
H       -0.70220000       1.78370000       0.89310000
H       -0.12010000      -0.48180000       0.69260000
H        0.64080000       0.11950000      -2.05950000
H        0.20740000      -2.55540000      -0.63700000
H       -1.31050000      -2.79730000      -2.40390000
H        0.83700000      -3.68260000      -2.67720000
H        1.40130000      -0.92120000      -3.95620000
H        2.65370000      -2.13330000      -3.61520000
H        1.38910000      -2.46270000      -4.81250000
