13
Properties=species:S:1:pos:R:3 gdb_30485=T pbc="F F F"
C       -0.32940000       1.46700000      -0.12810000
N       -0.17510000       0.02580000      -0.13660000
C        0.69050000      -0.54210000      -0.82360000
O        1.59240000       0.13420000      -1.64710000
C        2.48960000      -0.58050000      -2.34510000
N        2.63340000      -1.84280000      -2.35730000
C        1.76710000      -2.59500000      -1.55900000
O        1.77960000      -3.77880000      -1.46620000
O        0.81310000      -1.89100000      -0.81400000
H        0.37510000       2.00560000      -0.77080000
H       -1.35020000       1.71170000      -0.43920000
H       -0.21520000       1.82520000       0.90010000
H        3.12520000       0.07000000      -2.94010000
