17
Properties=species:S:1:pos:R:3 gdb_81404=T pbc="F F F"
O        0.00450000       1.38950000      -0.14360000
C        0.03270000      -0.01130000      -0.02190000
C        0.06020000      -0.60380000       1.42140000
C       -1.42140000      -0.18450000       1.54350000
C       -1.40850000      -0.60340000       0.03940000
C       -1.05440000      -2.09910000       0.16450000
O        0.01120000      -2.01580000       1.15920000
C       -2.14070000      -2.96330000       0.60820000
C       -3.04480000      -3.67780000       0.94930000
H        0.88830000       1.72280000       0.04170000
H        0.73180000      -0.47620000      -0.73070000
H        0.83180000      -0.39470000       2.16190000
H       -2.05010000      -0.75190000       2.23090000
H       -1.55020000       0.88930000       1.66210000
H       -2.18420000      -0.32790000      -0.67220000
H       -0.63210000      -2.49670000      -0.76690000
H       -3.83890000      -4.31240000       1.25700000
