13
Properties=species:S:1:pos:R:3 gdb_133503=T pbc="F F F"
N        0.02970000       1.27890000      -0.06860000
C        0.06300000      -0.07050000      -0.05080000
O        1.07920000      -0.73660000      -0.13710000
C       -1.29560000      -0.81160000       0.02630000
O       -1.06300000      -2.18060000      -0.00550000
C       -2.06670000      -0.45180000       1.30290000
F       -2.44310000       0.85290000       1.27120000
F       -3.17370000      -1.17820000       1.42000000
F       -1.32740000      -0.62970000       2.39950000
H        0.90740000       1.77380000      -0.04750000
H       -0.81380000       1.77470000       0.16580000
H       -1.92860000      -0.49350000      -0.81580000
H       -0.09090000      -2.26070000      -0.02400000
