18
Properties=species:S:1:pos:R:3 gdb_37122=T pbc="F F F"
C        0.01410000       1.47080000      -0.11090000
C        1.33930000       0.76930000       0.01350000
C        1.93530000       0.54930000       1.38170000
O        0.85350000       0.10380000       2.21070000
C       -0.05280000      -0.65000000       1.39430000
C        0.01790000      -0.02790000       0.02190000
C        0.50220000      -0.78320000      -1.25070000
N        0.75500000       0.21960000      -2.31240000
C        1.76970000      -0.01860000      -1.25870000
H       -0.30580000       2.01040000       0.77450000
H       -0.25870000       1.91310000      -1.05920000
H        2.73290000      -0.21050000       1.32380000
H        2.34790000       1.44110000       1.86430000
H        0.24690000      -1.71020000       1.33950000
H       -1.02950000      -0.59630000       1.88580000
H        0.28080000      -1.81400000      -1.49700000
H        1.05970000      -0.29400000      -3.13900000
H        2.78250000      -0.30500000      -1.51280000
