19
Properties=species:S:1:pos:R:3 gdb_104794=T pbc="F F F"
C       -1.35470000      -0.42820000       0.09840000
O       -0.05720000       0.06820000      -0.17880000
C        0.67210000      -0.65310000      -1.15650000
C        0.34180000      -0.09830000      -2.54110000
O        0.60960000       1.28680000      -2.60080000
C        2.20940000      -0.68310000      -0.84670000
C        2.12050000      -2.21210000      -0.84750000
O        1.19710000      -2.58290000       0.18180000
C        0.66690000      -2.19690000      -1.08840000
H       -2.00180000      -0.44020000      -0.79030000
H       -1.30890000      -1.44090000       0.51820000
H       -1.79560000       0.24240000       0.83930000
H        0.95470000      -0.58610000      -3.30650000
H       -0.71360000      -0.31530000      -2.78000000
H        0.25070000       1.65370000      -1.78250000
H        2.80660000      -0.25410000      -1.65300000
H        2.49150000      -0.24480000       0.11150000
H        2.86020000      -2.94820000      -1.13800000
H        0.02200000      -2.90320000      -1.59990000
