15
Properties=species:S:1:pos:R:3 gdb_15217=T pbc="F F F"
C       -0.31280000       1.43900000       0.14170000
N        0.03360000       0.02300000       0.00560000
C        0.50780000      -0.51500000      -1.27010000
C        0.76490000       0.29710000      -2.49300000
O        1.05690000       1.46850000      -2.52600000
C        1.42610000      -0.38180000      -0.05320000
C        2.51190000       0.55660000      -0.02960000
C        3.44040000       1.31570000       0.05270000
H        0.34540000       2.12130000      -0.40090000
H       -1.33680000       1.56990000      -0.21920000
H       -0.29290000       1.67890000       1.20850000
H        0.13690000      -1.51550000      -1.48760000
H        0.65900000      -0.29210000      -3.43160000
H        1.63200000      -1.31450000       0.46990000
H        4.25500000       1.99540000       0.10470000
