18
Properties=species:S:1:pos:R:3 gdb_85213=T pbc="F F F"
C       -0.26850000       1.53330000      -0.09700000
C        0.04850000       0.05900000       0.01030000
O        1.20490000      -0.31400000      -0.82180000
C        1.90440000      -0.77050000       0.27060000
N        3.06910000      -1.22630000       0.37020000
C        0.79080000      -0.49490000       1.26300000
C        1.11120000       0.42620000       2.44430000
C        1.99700000      -0.26310000       3.47070000
O        1.74140000      -0.30950000       4.64680000
H        0.59690000       2.15110000       0.15630000
H       -0.57240000       1.77580000      -1.11940000
H       -1.09340000       1.79420000       0.57400000
H       -0.81190000      -0.54950000      -0.28370000
H        3.54320000      -1.25440000      -0.53400000
H        0.33500000      -1.42090000       1.62590000
H        1.65400000       1.31190000       2.08910000
H        0.19970000       0.76080000       2.94800000
H        2.91360000      -0.72680000       3.05090000
