16
Properties=species:S:1:pos:R:3 gdb_26832=T pbc="F F F"
C        0.02240000       1.54070000      -0.04330000
C        0.02550000       0.04200000       0.01160000
C        0.05220000      -0.81700000      -1.08780000
O        0.06600000      -0.56840000      -2.41270000
N        0.05770000      -2.09780000      -0.66700000
C        0.03530000      -2.12190000       0.71980000
C        0.03150000      -3.37210000       1.42460000
O        0.04870000      -4.46430000       0.87780000
C        0.01590000      -0.79990000       1.14550000
H        1.02240000       1.96190000      -0.20950000
H       -0.62930000       1.92360000      -0.83960000
H       -0.35130000       1.96000000       0.89470000
H        0.07130000       0.38490000      -2.54800000
H        0.06900000      -2.92910000      -1.23630000
H        0.01150000      -3.27490000       2.53080000
H       -0.00660000      -0.47870000       2.17700000
