14
Properties=species:S:1:pos:R:3 gdb_52516=T pbc="F F F"
C        0.04730000       1.38460000      -0.08360000
C       -0.01340000      -0.06390000      -0.06230000
C       -0.07170000      -1.26990000      -0.05100000
C       -0.07520000      -2.69700000      -0.04620000
O       -1.06660000      -3.39540000      -0.07100000
C        1.30830000      -3.40690000       0.01700000
O        1.13310000      -4.78500000       0.07870000
C        2.12150000      -2.99930000      -1.14780000
N        2.75810000      -2.67410000      -2.05530000
H        0.71230000       1.72770000      -0.88320000
H       -0.94310000       1.82130000      -0.24410000
H        0.44140000       1.76570000       0.86470000
H        1.82140000      -3.03970000       0.91930000
H        0.17850000      -4.92430000      -0.05520000
