13
Properties=species:S:1:pos:R:3 gdb_24942=T pbc="F F F"
O        0.02750000       0.02680000      -0.01460000
C       -0.02350000       1.22680000       0.02640000
C       -1.30010000       2.13150000       0.02910000
C       -0.69590000       3.49980000      -0.00560000
C        0.64320000       3.37680000       0.00790000
N        1.10380000       2.07580000       0.07070000
O        1.24010000       4.57550000       0.03970000
C        0.14200000       5.43660000       0.03720000
N       -1.01060000       4.84980000       0.01880000
H       -1.91940000       1.86210000      -0.83260000
H       -1.88450000       1.91060000       0.92900000
H        2.04070000       1.73950000      -0.07990000
H        0.37780000       6.48700000       0.03700000
