16
Properties=species:S:1:pos:R:3 gdb_129775=T pbc="F F F"
N       -0.07920000       1.48880000      -0.17520000
C       -0.07200000       0.08840000      -0.03230000
C       -1.08650000      -0.82850000       0.10810000
C       -2.46490000      -1.38620000      -0.20660000
C       -1.71040000      -2.75750000      -0.38890000
N       -0.52080000      -2.06980000       0.16380000
N        0.82300000      -2.06460000      -0.05170000
C        1.08190000      -0.76130000      -0.08360000
O        2.34050000      -0.26870000      -0.14640000
H        0.86360000       1.85580000      -0.12230000
H       -0.64190000       1.94770000       0.53080000
H       -3.19720000      -1.36540000       0.60430000
H       -2.92480000      -1.00110000      -1.11880000
H       -2.04540000      -3.61720000       0.19650000
H       -1.59220000      -3.03700000      -1.43950000
H        2.94010000      -1.02360000      -0.19040000
