27
Properties=species:S:1:pos:R:3 gdb_100683=T pbc="F F F"
C       -0.13970000       1.66420000      -0.01630000
C        0.00120000       0.13950000       0.04730000
C       -1.35280000      -0.58140000      -0.04180000
O       -2.03680000      -0.20310000      -1.23920000
C       -1.31740000      -2.13580000       0.12650000
C       -0.60260000      -2.79410000      -1.06920000
C       -0.58570000      -2.50420000       1.43050000
C       -2.79750000      -2.60300000       0.20370000
C       -3.05170000      -4.11450000       0.18860000
H        0.83960000       2.15170000       0.00890000
H       -0.65620000       1.97110000      -0.92910000
H       -0.72170000       2.03920000       0.83290000
H        0.65260000      -0.20290000      -0.76900000
H        0.50570000      -0.13980000       0.97750000
H       -1.99320000      -0.19100000       0.76140000
H       -1.46230000      -0.41770000      -1.98200000
H        0.41440000      -2.40850000      -1.19520000
H       -0.51800000      -3.87500000      -0.92810000
H       -1.14980000      -2.63260000      -2.00450000
H       -0.98200000      -1.93890000       2.28220000
H       -0.70520000      -3.56770000       1.65730000
H        0.48890000      -2.30940000       1.36820000
H       -3.23420000      -2.18070000       1.11900000
H       -3.33550000      -2.14080000      -0.62970000
H       -4.12200000      -4.31490000       0.30200000
H       -2.73520000      -4.57520000      -0.75210000
H       -2.53830000      -4.63550000       1.00350000
