21
Properties=species:S:1:pos:R:3 gdb_63811=T pbc="F F F"
C       -0.13170000       1.54990000      -0.04280000
C        0.02220000       0.02960000      -0.01870000
O       -1.26220000      -0.59820000      -0.01640000
C        0.95670000      -0.53510000      -1.13860000
C        1.97500000      -1.28090000      -0.28200000
C        1.24200000      -1.95620000       0.92410000
C        2.49010000      -1.70270000       1.80290000
C        2.30820000      -0.40930000       0.97360000
C        0.76660000      -0.49640000       1.20880000
H        0.83940000       2.05100000       0.01910000
H       -0.61210000       1.87860000      -0.97310000
H       -0.75000000       1.88480000       0.79580000
H       -1.75610000      -0.26410000      -0.77260000
H        0.39750000      -1.19760000      -1.80670000
H        1.41890000       0.25230000      -1.74440000
H        2.78500000      -1.82330000      -0.77450000
H        0.61030000      -2.84420000       0.89020000
H        2.32630000      -1.62440000       2.88160000
H        3.37760000      -2.30440000       1.58420000
H        2.92460000       0.49230000       0.99750000
H        0.35510000      -0.24890000       2.18930000
