22
Properties=species:S:1:pos:R:3 gdb_95251=T pbc="F F F"
O       -0.04590000       1.42070000       0.05710000
C       -0.00180000      -0.00630000      -0.01890000
C       -1.45620000      -0.47880000       0.09990000
C       -2.36540000      -0.03290000      -1.05960000
C       -2.17530000      -0.88140000      -2.30120000
C       -2.09200000      -0.29230000      -3.66700000
N       -0.91330000      -0.89130000      -3.04590000
C        0.15660000       0.00330000      -2.60520000
C        0.75760000      -0.46890000      -1.27580000
H        0.85490000       1.75130000      -0.01870000
H        0.54120000      -0.40090000       0.85570000
H       -1.46780000      -1.57200000       0.18850000
H       -1.84450000      -0.07810000       1.04260000
H       -3.41400000      -0.11420000      -0.75000000
H       -2.18660000       1.02600000      -1.26500000
H       -2.60520000      -1.87990000      -2.21160000
H       -2.49570000      -0.81410000      -4.53120000
H       -2.13090000       0.79480000      -3.73600000
H        0.92650000      -0.01380000      -3.38540000
H       -0.16510000       1.05100000      -2.49940000
H        1.78660000      -0.09110000      -1.19620000
H        0.83180000      -1.56270000      -1.28310000
