23
Properties=species:S:1:pos:R:3 gdb_114996=T pbc="F F F"
C       -0.19980000       1.36150000       0.02400000
O        0.15990000       0.00350000      -0.07080000
C        0.75430000      -0.53610000       1.09930000
C       -0.25320000      -0.72330000       2.24470000
C        0.29440000      -1.62100000       3.32520000
C        1.36820000      -2.39410000       3.16890000
C        2.15320000      -2.50300000       1.88310000
C        2.53720000      -3.96070000       1.58420000
C        1.37530000      -1.87630000       0.71460000
H        0.65470000       1.98850000       0.32550000
H       -0.53220000       1.67680000      -0.96860000
H       -1.02040000       1.53650000       0.73520000
H        1.55470000       0.14340000       1.44300000
H       -0.53110000       0.24430000       2.68000000
H       -1.17950000      -1.14360000       1.82650000
H       -0.22610000      -1.61010000       4.28010000
H        1.71830000      -3.00070000       4.00220000
H        3.09280000      -1.94200000       2.01300000
H        1.64350000      -4.58180000       1.45940000
H        3.12780000      -4.02920000       0.66470000
H        3.13170000      -4.38840000       2.39850000
H        0.56970000      -2.55430000       0.40380000
H        2.02710000      -1.73610000      -0.15370000
