20
Properties=species:S:1:pos:R:3 gdb_37564=T pbc="F F F"
C       -0.09750000       1.54880000      -0.05350000
C        1.40230000       1.30430000       0.02050000
C        1.16400000       0.11820000       0.98830000
C        1.94070000      -0.89810000       0.13340000
C        3.37020000      -0.80830000      -0.40180000
C        3.14630000      -0.79050000      -1.96450000
C        1.68090000      -0.26920000      -2.25010000
C        1.21580000       0.00260000      -0.84160000
N       -0.08160000       0.02450000       0.01540000
H       -0.58410000       2.01640000       0.80920000
H       -0.51940000       1.93760000      -0.98620000
H        2.23860000       2.01110000       0.01510000
H        0.98200000       0.15980000       2.06450000
H        1.54940000      -1.92010000       0.18410000
H        3.85390000       0.12080000      -0.08420000
H        4.01950000      -1.63240000      -0.09650000
H        3.89650000      -0.17060000      -2.46200000
H        3.25760000      -1.80110000      -2.36740000
H        1.66810000       0.60830000      -2.90230000
H        1.07640000      -1.04830000      -2.72440000
