17
Properties=species:S:1:pos:R:3 gdb_24164=T pbc="F F F"
C       -0.35640000       1.12480000      -0.12430000
C        1.12420000       1.05110000       0.20370000
C        0.34140000      -0.19930000      -0.02330000
O        0.13050000      -0.98520000       1.12440000
C       -0.88620000      -1.87480000       1.06040000
C       -1.33290000      -2.63640000       2.11290000
N       -2.34610000      -3.40590000       1.56640000
C       -2.45370000      -3.07440000       0.25690000
N       -1.58020000      -2.14690000      -0.08400000
H       -1.02760000       1.38720000       0.68530000
H       -0.66490000       1.47070000      -1.10440000
H        1.84730000       1.34990000      -0.54670000
H        1.41490000       1.26350000       1.22630000
H        0.49570000      -0.77780000      -0.92770000
H       -1.03680000      -2.70350000       3.14420000
H       -2.90300000      -4.08240000       2.05960000
H       -3.17750000      -3.52970000      -0.40160000
