21
Properties=species:S:1:pos:R:3 gdb_94114=T pbc="F F F"
C       -0.62270000       1.39270000      -0.00410000
C        0.13960000       0.07040000       0.01460000
C        1.15690000      -0.09060000      -1.12510000
O        2.14550000      -1.01290000      -0.66880000
C        2.00920000      -1.23230000       0.74130000
C        3.39790000      -1.20460000       1.39000000
C        4.32000000      -2.26600000       0.82620000
O        4.91370000      -3.07460000       1.49430000
C        1.04030000      -0.15440000       1.24010000
H        0.06480000       2.24320000       0.06900000
H       -1.19840000       1.50660000      -0.92870000
H       -1.32560000       1.45730000       0.83240000
H       -0.57770000      -0.75850000      -0.04340000
H        0.70950000      -0.47820000      -2.04710000
H        1.63130000       0.87520000      -1.36020000
H        1.56450000      -2.22830000       0.89700000
H        3.84760000      -0.22280000       1.18700000
H        3.32560000      -1.34370000       2.47290000
H        4.41380000      -2.24870000      -0.28030000
H        1.58820000       0.76630000       1.47860000
H        0.49230000      -0.46230000       2.13410000
