18
Properties=species:S:1:pos:R:3 gdb_100576=T pbc="F F F"
C        0.02020000       1.42770000      -0.84440000
O       -0.19080000       0.03360000      -0.93840000
C        0.98720000      -0.74890000      -0.93930000
C        1.65910000      -0.85940000       0.43190000
C        0.63540000      -2.14120000      -1.48560000
O        1.41330000      -3.05540000      -1.41190000
C       -0.74600000      -2.27410000      -2.14350000
C       -0.99400000      -3.60090000      -2.69090000
N       -1.21360000      -4.64420000      -3.13370000
H        0.43310000       1.72210000       0.12940000
H        0.69830000       1.78420000      -1.63450000
H       -0.95340000       1.90630000      -0.97000000
H        1.71010000      -0.32740000      -1.66200000
H        2.47330000      -1.58440000       0.37590000
H        2.06720000       0.10240000       0.75090000
H        0.93620000      -1.19900000       1.17950000
H       -1.50880000      -2.01440000      -1.40130000
H       -0.84350000      -1.51250000      -2.92490000
