17
Properties=species:S:1:pos:R:3 gdb_3216=T pbc="F F F"
C       -0.12830000       1.59700000      -0.05980000
C        0.03690000       0.08290000      -0.04940000
C        0.71620000      -0.61090000      -1.23910000
C        2.16310000      -0.22340000      -1.34250000
C        1.76390000      -1.24270000      -0.31260000
C        1.13630000      -0.55640000       0.89160000
O        2.02640000       0.30930000       1.56790000
H        0.82300000       2.10920000      -0.22340000
H       -0.82080000       1.90670000      -0.85010000
H       -0.53700000       1.95540000       0.89270000
H       -0.92840000      -0.38940000       0.16180000
H        0.19210000      -1.07740000      -2.06480000
H        2.68680000      -0.62870000      -2.20230000
H        2.51140000       0.75580000      -1.03110000
H        2.16390000      -2.24900000      -0.31560000
H        0.68830000      -1.27620000       1.58920000
H        1.54880000       0.72340000       2.29380000
