19
Properties=species:S:1:pos:R:3 gdb_3990=T pbc="F F F"
C       -0.03710000       1.51900000      -0.01330000
C        0.00810000       0.01390000      -0.03070000
C        0.05380000      -0.75280000       1.26520000
C        1.34930000      -0.51320000       2.05940000
C        1.36830000      -1.27220000       3.37970000
O        2.58950000      -0.97190000       4.03730000
N        0.01510000      -0.68690000      -1.10030000
O       -0.00860000       0.12130000      -2.25180000
H        0.92250000       1.93960000      -0.33450000
H       -0.78860000       1.88250000      -0.71910000
H       -0.26130000       1.89910000       0.98560000
H       -0.80700000      -0.45780000       1.88260000
H       -0.05620000      -1.81730000       1.03730000
H        2.21300000      -0.82330000       1.46060000
H        1.47990000       0.55370000       2.27400000
H        0.50100000      -0.97350000       3.99230000
H        1.27220000      -2.35350000       3.18800000
H        2.61650000      -1.46500000       4.86230000
H       -0.03050000      -0.53520000      -2.95560000
