12
Properties=species:S:1:pos:R:3 gdb_133388=T pbc="F F F"
N        0.03410000       1.31230000       0.07010000
C       -0.04090000      -0.03030000       0.02290000
N       -1.20550000      -0.61370000       0.01080000
O       -1.17320000      -2.03310000      -0.00600000
C       -0.03000000      -2.67540000      -0.01580000
F       -0.23900000      -3.96960000      -0.02740000
C        1.21060000      -2.13560000      -0.01750000
C        1.30570000      -0.70950000      -0.00540000
O        2.32090000      -0.02760000      -0.02080000
H        0.96080000       1.69810000      -0.03130000
H       -0.78620000       1.88400000      -0.02560000
H        2.08850000      -2.76490000      -0.03240000
