15
Properties=species:S:1:pos:R:3 gdb_51157=T pbc="F F F"
O       -0.02380000      -0.00390000      -0.10820000
C       -0.00930000       1.18580000      -0.07260000
O        1.15540000       1.88280000       0.06860000
C        1.04390000       3.26600000       0.10550000
C        1.27150000       4.11980000      -1.13330000
C        2.16930000       4.31970000       0.04420000
C        1.44920000       5.19500000       1.08510000
C        0.39180000       4.06350000       1.19960000
O       -0.46990000       3.80490000       1.98880000
H       -0.89350000       1.84140000      -0.14060000
H        1.68800000       3.54210000      -1.95240000
H        0.55930000       4.88570000      -1.42830000
H        3.23090000       4.11740000       0.01950000
H        1.98080000       5.30460000       2.03410000
H        1.10540000       6.17500000       0.74390000
