17
Properties=species:S:1:pos:R:3 gdb_32234=T pbc="F F F"
C       -0.69500000       0.82890000       0.11450000
N        0.63880000       0.20740000       0.14540000
C        0.99040000      -0.54010000      -1.00550000
C        1.89440000      -0.11990000      -1.96480000
N        2.24800000      -0.85490000      -3.03110000
C        1.64890000      -2.03700000      -3.12150000
N        0.78030000      -2.57420000      -2.26220000
C        0.45650000      -1.83830000      -1.19730000
N       -0.43000000      -2.36270000      -0.29090000
H       -0.81470000       1.55920000      -0.69940000
H       -1.45440000       0.05380000      -0.01440000
H       -0.87570000       1.33150000       1.06870000
H        1.34190000       0.91510000       0.32690000
H        2.36940000       0.85660000      -1.86600000
H        1.90110000      -2.64690000      -3.98600000
H       -0.56360000      -3.36000000      -0.37090000
H       -0.33890000      -2.00400000       0.64920000
