22
Properties=species:S:1:pos:R:3 gdb_122294=T pbc="F F F"
O       -0.03050000       1.44390000       0.03770000
C        0.04000000       0.02660000       0.00160000
C       -1.38290000      -0.51420000       0.02770000
C       -1.44110000      -2.04580000      -0.00770000
C       -2.85240000      -2.58760000       0.01900000
C       -4.01860000      -2.36170000      -0.97900000
N       -4.66940000      -3.29800000       0.05330000
C       -3.33340000      -4.05820000      -0.00480000
C       -3.95870000      -2.41490000       1.09290000
H        0.86600000       1.79090000       0.02140000
H        0.55450000      -0.32460000      -0.90840000
H        0.60330000      -0.36740000       0.86400000
H       -1.87990000      -0.13780000       0.92990000
H       -1.92830000      -0.09530000      -0.82650000
H       -0.93610000      -2.41750000      -0.91020000
H       -0.88670000      -2.46000000       0.84600000
H       -4.48270000      -1.37220000      -1.02040000
H       -3.93610000      -2.80340000      -1.97680000
H       -3.19740000      -4.63110000      -0.92720000
H       -3.14530000      -4.67740000       0.87760000
H       -3.81940000      -2.90700000       2.06030000
H       -4.41820000      -1.42950000       1.21170000
