17
Properties=species:S:1:pos:R:3 gdb_40775=T pbc="F F F"
C        0.11600000       1.47720000       0.03470000
O        0.99150000       0.43000000      -0.38930000
C       -0.33540000       0.08120000       0.01420000
C       -0.42380000      -0.74270000       1.26960000
O       -1.79430000      -0.91970000       1.70770000
C       -1.69470000      -2.36450000       1.68600000
C       -0.27810000      -2.26090000       1.13420000
C        0.48000000      -3.07190000       0.18500000
O        0.82310000      -3.00890000       1.58200000
H        0.37180000       1.94390000       0.98480000
H       -0.21100000       2.15810000      -0.74920000
H       -0.99090000      -0.24300000      -0.79500000
H        0.21490000      -0.31580000       2.05440000
H       -1.75370000      -2.80180000       2.69010000
H       -2.45320000      -2.82100000       1.03960000
H        0.07940000      -4.02680000      -0.15210000
H        1.18720000      -2.58960000      -0.48730000
