16
Properties=species:S:1:pos:R:3 gdb_11129=T pbc="F F F"
O        0.44260000       1.20030000      -0.01660000
C        0.24250000      -0.19250000       0.09960000
C       -1.15800000      -0.57340000      -0.34360000
C       -1.70480000      -1.94450000       0.10580000
C       -2.70280000      -1.11680000       0.93430000
O       -2.14020000       0.13450000       0.47690000
C       -4.16540000      -1.21280000       0.54360000
O       -4.69930000      -2.22350000       0.16880000
H       -0.28070000       1.61540000       0.46930000
H        0.98590000      -0.68260000      -0.53950000
H        0.40380000      -0.54200000       1.13330000
H       -1.30180000      -0.32320000      -1.40110000
H       -2.17010000      -2.55920000      -0.66450000
H       -1.00660000      -2.54990000       0.68580000
H       -2.62850000      -1.22310000       2.02710000
H       -4.70990000      -0.24560000       0.62680000
