18
Properties=species:S:1:pos:R:3 gdb_120109=T pbc="F F F"
O       -0.38470000       1.68250000       0.02100000
C        0.02450000       0.33410000       0.11960000
C       -1.17300000      -0.61400000       0.21630000
N       -2.04750000      -0.34670000      -0.93620000
C       -2.50880000      -1.23670000      -1.95840000
C       -3.11880000      -2.58950000      -1.40630000
O       -2.99620000      -2.61530000       0.02040000
C       -4.05270000      -1.85230000      -0.56470000
C       -3.46890000      -0.47780000      -1.07790000
H       -1.06540000       1.67940000      -0.66520000
H        0.65020000       0.04180000      -0.74120000
H        0.64210000       0.24430000       1.02010000
H       -0.83910000      -1.65350000       0.24890000
H       -1.73440000      -0.40900000       1.13250000
H       -2.24020000      -1.08120000      -2.99760000
H       -3.21140000      -3.53230000      -1.93050000
H       -5.07070000      -2.06340000      -0.26170000
H       -4.07990000       0.39080000      -1.29770000
