21
Properties=species:S:1:pos:R:3 gdb_116359=T pbc="F F F"
C        0.00770000       1.37260000      -0.06250000
O        0.02240000      -0.04380000      -0.02910000
C       -1.24260000      -0.62400000      -0.04660000
O       -1.85300000      -0.32110000      -1.28670000
C       -3.02900000      -1.07590000      -1.52040000
C       -2.69220000      -2.55960000      -1.66770000
C       -1.76460000      -2.98220000      -0.56040000
C       -1.09310000      -2.11410000       0.19710000
C       -0.19780000      -2.51260000       1.33530000
H        1.04280000       1.70150000       0.05220000
H       -0.39300000       1.75000000      -1.00920000
H       -0.59270000       1.78200000       0.76430000
H       -1.86120000      -0.17710000       0.76440000
H       -3.74410000      -0.93570000      -0.69260000
H       -3.48150000      -0.66750000      -2.42820000
H       -3.61360000      -3.15550000      -1.64560000
H       -2.22720000      -2.74600000      -2.64570000
H       -1.65040000      -4.04900000      -0.37910000
H       -0.19600000      -3.59730000       1.47260000
H        0.82820000      -2.17420000       1.16200000
H       -0.52380000      -2.05040000       2.27630000
