15
Properties=species:S:1:pos:R:3 gdb_4197=T pbc="F F F"
O       -0.12060000       1.35060000       0.02290000
N        0.02860000      -0.05810000       0.02510000
C       -1.08810000      -0.63720000       0.04970000
C       -2.59940000      -0.33450000      -0.01460000
C       -2.62290000      -1.56290000      -0.99940000
C       -1.51940000      -2.10930000      -0.01970000
C       -2.32970000      -2.17400000       1.28690000
C       -3.02340000      -1.02910000       1.29010000
H        0.79650000       1.64380000       0.00630000
H       -3.00020000       0.64290000      -0.26630000
H       -3.55660000      -2.12940000      -1.03960000
H       -2.24140000      -1.32900000      -1.99760000
H       -0.83840000      -2.91650000      -0.27700000
H       -2.27980000      -2.95980000       2.02640000
H       -3.69430000      -0.62390000       2.03350000
