16
Properties=species:S:1:pos:R:3 gdb_67915=T pbc="F F F"
C        0.00670000       1.54960000       0.06080000
C       -0.01460000       0.05450000      -0.02510000
C       -1.27630000      -0.81480000      -0.09270000
C       -0.56740000      -1.70100000       0.93470000
N       -0.77500000      -2.72650000       1.62230000
N        0.60720000      -0.84020000       1.04930000
C        1.19270000      -0.75460000      -0.33080000
C        1.17190000      -1.87240000      -1.24210000
N        1.15450000      -2.75280000      -1.99170000
H        0.99250000       1.91040000       0.36620000
H       -0.23650000       1.99410000      -0.91040000
H       -0.72800000       1.90450000       0.79030000
H       -2.15590000      -0.31980000       0.32710000
H       -1.53380000      -1.25980000      -1.05680000
H       -1.68110000      -3.14210000       1.40060000
H        2.14260000      -0.22850000      -0.31380000
