16
Properties=species:S:1:pos:R:3 gdb_19943=T pbc="F F F"
N       -0.59310000       0.76960000      -1.03130000
C       -0.29340000      -0.20420000      -0.29740000
O        0.78190000      -0.41530000       0.53200000
C        0.23330000      -1.69770000       0.98320000
C       -0.97250000      -1.52010000       0.02660000
C       -2.36880000      -1.45460000       0.60310000
C       -2.84830000      -0.26120000       1.34540000
N       -3.37170000      -0.56550000       0.00290000
H        0.10390000       1.51450000      -0.98240000
H        0.92350000      -2.51480000       0.76380000
H       -0.00120000      -1.66180000       2.04940000
H       -0.94660000      -2.21170000      -0.82130000
H       -2.76740000      -2.42680000       0.88910000
H       -3.55900000      -0.38240000       2.15810000
H       -2.17420000       0.58440000       1.45200000
H       -2.91120000       0.04750000      -0.67050000
