15
Properties=species:S:1:pos:R:3 gdb_46456=T pbc="F F F"
O        0.01280000      -0.04440000       0.00120000
C        0.01010000       1.16540000       0.02400000
N       -1.08360000       1.98180000       0.14560000
C       -0.84200000       3.40900000       0.02520000
C        0.68400000       3.49000000      -0.09290000
N        1.34740000       2.93930000       1.11470000
C        1.20620000       2.08860000      -0.08700000
C        1.28820000       4.55730000      -0.82660000
C        1.78330000       5.47320000      -1.42890000
H       -1.99390000       1.59050000       0.32530000
H       -1.31540000       3.82780000      -0.87070000
H       -1.19430000       3.96240000       0.90280000
H        2.30110000       3.29730000       1.14520000
H        2.07770000       1.77040000      -0.64430000
H        2.22550000       6.27570000      -1.96610000
