18
Properties=species:S:1:pos:R:3 gdb_18829=T pbc="F F F"
C       -0.01720000       1.50610000       0.06830000
C       -0.07410000       0.01460000      -0.00260000
C        0.00330000      -0.77710000      -1.08060000
C       -0.00700000      -2.20840000      -0.66380000
C        0.93510000      -2.65850000       0.48580000
C        1.43170000      -1.47580000       1.30790000
C       -0.02780000      -0.86910000       1.23240000
C       -0.50360000      -2.28040000       0.75390000
H        0.87200000       1.85040000       0.61320000
H        0.00650000       1.95540000      -0.92850000
H       -0.88430000       1.91300000       0.60460000
H        0.10950000      -0.44800000      -2.10770000
H       -0.27480000      -2.99470000      -1.36060000
H        1.38720000      -3.64280000       0.45010000
H        1.66340000      -1.79610000       2.32700000
H        2.25010000      -0.85930000       0.91960000
H       -0.42570000      -0.44430000       2.15390000
H       -1.34340000      -2.86470000       1.11020000
