18
Properties=species:S:1:pos:R:3 gdb_39704=T pbc="F F F"
C       -0.06360000       1.55100000       0.00330000
C        1.25670000       0.80140000      -0.00970000
C       -0.04200000       0.05810000       0.00570000
C       -0.48860000      -0.97310000       1.03050000
C       -1.98220000      -1.26480000       0.80260000
C       -1.99900000      -1.26750000      -0.74410000
C       -1.65620000      -2.50380000       0.02780000
N       -0.18550000      -2.10010000       0.01110000
C       -0.51070000      -0.97670000      -1.00540000
H       -0.35040000       2.06320000       0.91630000
H       -0.37020000       2.06000000      -0.90500000
H        1.83670000       0.80540000      -0.92700000
H        1.85650000       0.80860000       0.89470000
H       -0.06080000      -1.04440000       2.03090000
H       -2.85240000      -1.01830000       1.39640000
H       -2.88190000      -1.02310000      -1.31980000
H       -2.03640000      -3.51690000       0.03370000
H       -0.10470000      -1.05150000      -2.01460000
