16
Properties=species:S:1:pos:R:3 gdb_44317=T pbc="F F F"
O       -0.04860000       0.04350000      -0.13200000
C        0.00510000       1.24390000      -0.05220000
N       -1.06760000       2.15650000      -0.07900000
C       -0.50240000       3.48570000       0.25980000
C        0.76460000       3.55500000      -0.60770000
C        1.78840000       3.97410000       0.49130000
C        2.61400000       2.65430000       0.31200000
C        1.14300000       2.22860000       0.14950000
C        0.65220000       3.23680000       1.26180000
H       -1.96070000       1.85180000       0.27870000
H       -1.25490000       4.27090000       0.33880000
H        0.84550000       3.68770000      -1.68720000
H        2.17160000       4.97610000       0.68540000
H        3.24470000       2.58510000      -0.57830000
H        3.14130000       2.27790000       1.19270000
H        0.61200000       3.00640000       2.32790000
