16
Properties=species:S:1:pos:R:3 gdb_17980=T pbc="F F F"
C       -0.36210000      -1.22470000      -0.48700000
C       -0.21360000      -0.05510000      -0.24680000
C       -0.01390000       1.34570000       0.06110000
C       -0.05790000       1.79850000       1.57010000
C        1.35230000       2.41310000       1.41720000
O        2.39910000       1.50850000       1.81270000
C        2.56590000       1.03400000       0.45250000
C        1.43310000       1.93640000      -0.05940000
H       -0.50390000      -2.25460000      -0.70330000
H       -0.70650000       1.95030000      -0.53230000
H       -0.85740000       2.51260000       1.78050000
H       -0.09120000       0.98640000       2.29730000
H        1.52270000       3.43330000       1.77030000
H        3.55910000       1.29040000       0.06390000
H        2.40640000      -0.04620000       0.36010000
H        1.63490000       2.57220000      -0.91980000
