17
Properties=species:S:1:pos:R:3 gdb_11127=T pbc="F F F"
C        0.16250000       1.15940000      -0.30270000
O       -0.06370000      -0.11400000       0.26530000
C       -1.40820000      -0.48790000       0.27200000
C       -1.99350000      -1.04460000      -1.07330000
N       -2.23540000      -2.30590000      -0.37190000
C       -1.62160000      -1.89270000       0.88900000
C       -2.81960000      -3.47240000      -0.71700000
O       -2.93310000      -4.42990000       0.02130000
H        1.23350000       1.35910000      -0.23010000
H       -0.13310000       1.19630000      -1.36190000
H       -0.38680000       1.94530000       0.23780000
H       -2.03400000       0.29810000       0.71590000
H       -2.89450000      -0.55220000      -1.45400000
H       -1.24360000      -1.11140000      -1.87030000
H       -0.68070000      -2.40530000       1.11250000
H       -2.28720000      -1.95480000       1.75430000
H       -3.19370000      -3.45370000      -1.76200000
