21
Properties=species:S:1:pos:R:3 gdb_99698=T pbc="F F F"
C        0.36950000       1.38300000       0.69330000
C        0.27300000      -0.05030000       0.45370000
C        0.20080000      -1.23900000       0.26990000
C        0.04880000      -2.66960000       0.01880000
C       -1.45440000      -3.05590000       0.07650000
O       -1.67050000      -4.44710000       0.11020000
C        0.69820000      -3.06420000      -1.33660000
C        2.18900000      -2.75170000      -1.40400000
O        0.46210000      -4.44770000      -1.64180000
H        1.29050000       1.63690000       1.22950000
H        0.36760000       1.94560000      -0.24680000
H       -0.47310000       1.74220000       1.29450000
H        0.55570000      -3.23850000       0.81350000
H       -1.88680000      -2.64280000       0.99230000
H       -1.96870000      -2.57520000      -0.77240000
H       -1.21360000      -4.80040000      -0.66580000
H        0.17210000      -2.51960000      -2.12900000
H        2.73300000      -3.29390000      -0.61940000
H        2.59320000      -3.05340000      -2.37410000
H        2.37050000      -1.68480000      -1.25780000
H        1.04580000      -4.97350000      -1.08190000
