21
Properties=species:S:1:pos:R:3 gdb_76812=T pbc="F F F"
C        0.03200000       1.59610000       0.15020000
C        0.06660000       0.08230000       0.02390000
C        1.17680000      -0.59630000      -0.93000000
O        2.33150000       0.16590000      -1.19860000
C        1.31120000      -1.74350000       0.14180000
C        2.09530000      -1.96320000       1.47990000
C        2.12560000      -0.43430000       1.66960000
C        0.68370000      -0.77560000       1.15280000
C        0.66810000      -1.94030000       2.19400000
H        1.01840000       1.99020000       0.41160000
H       -0.28360000       2.06750000      -0.78870000
H       -0.67350000       1.90950000       0.92680000
H       -0.91310000      -0.30690000      -0.27580000
H        0.75110000      -0.98100000      -1.86720000
H        2.08590000       0.87630000      -1.80090000
H        0.68560000      -2.58930000      -0.15950000
H        2.89920000      -2.67430000       1.69330000
H        2.18160000      -0.07220000       2.70050000
H        2.77680000       0.12660000       1.00440000
H       -0.00050000      -2.77770000       1.97560000
H        0.67260000      -1.69430000       3.26110000
