12
Properties=species:S:1:pos:R:3 gdb_132647=T pbc="F F F"
N       -0.05210000       1.37130000      -0.12290000
C       -0.02910000       0.00890000      -0.04950000
N       -1.17280000      -0.67130000      -0.03010000
C       -1.08060000      -1.98870000      -0.01010000
F       -2.22820000      -2.65550000       0.00710000
C        0.11520000      -2.68610000      -0.00020000
N        1.27030000      -1.99770000      -0.00780000
C        1.19220000      -0.70490000      -0.03260000
F        2.32350000       0.01120000      -0.03280000
H        0.78940000       1.86580000       0.12120000
H       -0.92860000       1.81830000       0.09310000
H        0.15280000      -3.76800000       0.01830000
