16
Properties=species:S:1:pos:R:3 gdb_7216=T pbc="F F F"
C        0.14040000       1.43670000       0.09720000
C        0.08160000      -0.01710000       0.06310000
C        0.01950000      -1.21980000       0.04610000
C       -0.07140000      -2.68480000       0.01140000
O       -1.39350000      -3.15170000       0.04240000
C        0.63610000      -3.21070000      -1.26510000
C        2.11460000      -2.96330000      -1.41160000
O       -0.02860000      -3.80740000      -2.08090000
H        0.89880000       1.78770000       0.80540000
H        0.38390000       1.85130000      -0.88700000
H       -0.82230000       1.85820000       0.40620000
H        0.47680000      -3.09350000       0.87670000
H       -1.53820000      -3.53750000      -0.83840000
H        2.33360000      -1.89910000      -1.28980000
H        2.65420000      -3.49540000      -0.61940000
H        2.45800000      -3.31560000      -2.38470000
