18
Properties=species:S:1:pos:R:3 gdb_45375=T pbc="F F F"
O        0.03380000      -0.08940000       0.05470000
C       -0.01090000       1.11470000       0.04190000
N       -1.17750000       1.83870000       0.08280000
C       -1.24450000       3.29310000      -0.03760000
C       -0.94560000       3.75560000      -1.48280000
C        0.60900000       3.65100000      -1.58030000
C        1.06720000       3.28100000      -0.15230000
C       -0.04130000       3.83950000       0.74030000
O        1.14030000       1.84680000       0.01180000
H       -2.00830000       1.28210000      -0.03470000
H       -2.21410000       3.62820000       0.33600000
H       -1.46220000       3.13430000      -2.21760000
H       -1.28180000       4.78770000      -1.62650000
H        0.94550000       2.89280000      -2.29030000
H        1.05340000       4.60320000      -1.88360000
H        2.07170000       3.63150000       0.08610000
H       -0.03030000       4.93330000       0.73010000
H        0.01330000       3.48370000       1.77080000
