19
Properties=species:S:1:pos:R:3 gdb_53622=T pbc="F F F"
C        0.02380000       1.49370000       0.16510000
C        0.04860000       0.04700000       0.00430000
C        0.07060000      -1.14810000      -0.13550000
C        0.08700000      -2.59610000      -0.29340000
C       -1.29230000      -3.23160000      -0.12630000
O       -2.14920000      -2.86680000      -1.19260000
C       -2.94080000      -4.00180000      -1.53070000
C       -2.44120000      -5.10460000      -0.57580000
O       -1.16450000      -4.63290000      -0.17600000
H        0.94000000       1.85850000       0.64270000
H       -0.07080000       2.00090000      -0.80140000
H       -0.82090000       1.80950000       0.78750000
H        0.46040000      -2.88180000      -1.28340000
H        0.75060000      -3.05640000       0.44880000
H       -1.74810000      -2.92420000       0.83290000
H       -4.00610000      -3.78330000      -1.39160000
H       -2.76910000      -4.25470000      -2.58340000
H       -3.10740000      -5.21050000       0.29330000
H       -2.31960000      -6.08030000      -1.05070000
