17
Properties=species:S:1:pos:R:3 gdb_40074=T pbc="F F F"
C        0.05440000       1.50170000      -0.01450000
O        1.21360000       0.66810000      -0.05140000
C       -0.08020000       0.04110000      -0.00920000
C       -0.46140000      -0.77500000       1.25310000
C       -0.49610000      -2.20600000       0.70450000
O       -1.71300000      -3.03380000       0.73930000
C       -1.67880000      -3.18860000      -0.71480000
C       -0.72560000      -2.02270000      -0.76150000
C       -0.55830000      -0.77310000      -1.18190000
H       -0.09900000       2.05480000       0.91260000
H       -0.14950000       2.06580000      -0.92480000
H        0.24090000      -0.60720000       2.07240000
H       -1.46760000      -0.49260000       1.57930000
H        0.36360000      -2.81460000       1.01090000
H       -1.26450000      -4.16440000      -0.99970000
H       -2.66090000      -3.05300000      -1.17860000
H       -0.82170000      -0.33970000      -2.13840000
