19
Properties=species:S:1:pos:R:3 gdb_80972=T pbc="F F F"
C       -0.03740000       1.46790000       0.07310000
C       -0.01750000      -0.01870000      -0.00070000
C       -0.01220000      -0.87650000      -1.03060000
C        0.07150000      -2.23290000      -0.33990000
C       -0.06400000      -3.52860000      -1.08250000
O       -0.87180000      -2.05340000       0.79630000
C        0.06030000      -0.98690000       1.18060000
C        1.21570000      -1.94560000       0.72010000
O        1.51370000      -2.99790000       1.57780000
H        0.84060000       1.85360000       0.60640000
H       -0.04950000       1.91660000      -0.92400000
H       -0.91780000       1.82830000       0.61980000
H       -0.01650000      -0.69040000      -2.09550000
H        0.60580000      -3.54260000      -1.94810000
H        0.19550000      -4.37140000      -0.43570000
H       -1.09010000      -3.66210000      -1.43820000
H       -0.05350000      -0.63160000       2.20490000
H        2.15270000      -1.50990000       0.36740000
H        0.65860000      -3.33440000       1.88190000
