19
Properties=species:S:1:pos:R:3 gdb_66131=T pbc="F F F"
C        0.11880000       1.60250000       0.24090000
C        0.01380000       0.07490000       0.09260000
C        0.68700000      -0.47300000      -1.19210000
C        1.25080000      -1.86910000      -0.83360000
C        1.49140000      -1.79680000       0.65960000
O        2.17430000      -0.59910000       1.07770000
C        0.75310000      -0.66030000       1.21790000
C       -1.45370000      -0.32490000       0.18310000
O       -2.05840000      -0.96350000      -0.63910000
H        1.16950000       1.88510000       0.34660000
H       -0.29250000       2.11260000      -0.63580000
H       -0.42100000       1.96130000       1.12450000
H       -0.02850000      -0.52000000      -2.01460000
H        1.49960000       0.19680000      -1.47940000
H        0.51410000      -2.65520000      -1.03330000
H        2.15750000      -2.11210000      -1.39560000
H        1.72560000      -2.68550000       1.23990000
H        0.37870000      -0.62480000       2.23920000
H       -1.96200000       0.03180000       1.11030000
