17
Properties=species:S:1:pos:R:3 gdb_69352=T pbc="F F F"
N       -0.12530000       1.47250000       0.01580000
C       -0.05070000       0.01500000      -0.01190000
C        0.24700000      -0.64520000       1.38950000
C       -1.13200000      -1.31330000       1.33600000
O       -1.36200000      -2.61520000       1.73090000
C       -2.22180000      -0.29610000       1.17820000
C       -1.41310000      -0.71280000      -0.03220000
C        0.84870000      -0.48680000      -1.06220000
N        1.56290000      -0.83300000      -1.90390000
H        0.80570000       1.86590000       0.12650000
H       -0.48290000       1.81960000      -0.87050000
H        1.05680000      -1.37340000       1.33320000
H        0.43240000       0.06690000       2.19880000
H       -1.70140000      -2.60700000       2.63250000
H       -3.22220000      -0.71700000       1.18920000
H       -2.12890000       0.70990000       1.57490000
H       -1.85870000      -1.15600000      -0.91290000
