10
Properties=species:S:1:pos:R:3 gdb_21624=T pbc="F F F"
N        0.00280000       1.31930000       0.00820000
C       -0.05230000      -0.01700000       0.00100000
N       -1.18340000      -0.65300000       0.00380000
C       -1.13160000      -2.01680000      -0.00400000
O       -2.04480000      -2.78060000      -0.00340000
O        0.17740000      -2.60640000      -0.01460000
N        1.32570000      -1.84300000      -0.01690000
N        1.23580000      -0.60440000      -0.00950000
H        0.89590000       1.78110000       0.00570000
H       -0.85250000       1.84910000       0.01600000
