13
Properties=species:S:1:pos:R:3 gdb_132450=T pbc="F F F"
N        0.06570000       1.40070000       0.17120000
C       -0.03550000       0.02140000       0.04670000
C       -1.19910000      -0.69540000       0.00340000
N       -1.19050000      -2.06170000      -0.02690000
C       -0.07680000      -2.68920000      -0.04230000
F       -0.07670000      -4.01380000      -0.07810000
C        1.25610000      -2.07460000      -0.01320000
O        2.33200000      -2.63580000      -0.01830000
N        1.14390000      -0.67840000       0.03840000
H        0.76150000       1.83080000      -0.42560000
H       -0.82330000       1.87200000       0.07710000
H       -2.16290000      -0.20270000      -0.00700000
H        2.02470000      -0.18970000       0.13460000
