23
Properties=species:S:1:pos:R:3 gdb_76631=T pbc="F F F"
C       -0.76080000       0.90810000      -0.10870000
C        0.07080000      -0.35520000      -0.01420000
C        1.50900000      -0.37440000      -0.47710000
O        2.05120000       0.86710000      -0.82970000
C        1.18870000      -0.64970000       0.97890000
C        1.72560000       0.18580000       2.11090000
C        3.13720000      -0.22870000       2.50350000
C        1.37020000       1.63930000       2.32510000
C        0.80290000       0.58550000       3.24340000
H       -0.13190000       1.78950000      -0.23970000
H       -1.41770000       0.84650000      -0.98280000
H       -1.39870000       1.05290000       0.76950000
H       -0.49050000      -1.25040000      -0.27050000
H        1.84830000      -1.19870000      -1.10440000
H        2.87010000       0.98930000      -0.33970000
H        1.23940000      -1.70840000       1.23330000
H        3.84870000      -0.07170000       1.68270000
H        3.49480000       0.34380000       3.36500000
H        3.17780000      -1.29200000       2.76800000
H        2.15280000       2.28240000       2.71540000
H        0.69890000       2.13500000       1.64010000
H       -0.24960000       0.34480000       3.14130000
H        1.17860000       0.52370000       4.25960000
