12
Properties=species:S:1:pos:R:3 gdb_21573=T pbc="F F F"
N        0.02180000       1.38210000       0.15510000
C       -0.08390000       0.02100000       0.05540000
C       -1.13790000      -0.85120000       0.03540000
C       -0.50060000      -2.12070000      -0.00300000
C       -1.18480000      -3.43820000      -0.03640000
O       -0.63540000      -4.50830000      -0.07300000
N        0.81430000      -2.03280000      -0.00790000
O        1.07370000      -0.65920000       0.02790000
H        0.90640000       1.76120000      -0.15080000
H       -0.77440000       1.90440000      -0.17580000
H       -2.19140000      -0.62990000       0.05270000
H       -2.29420000      -3.35260000      -0.02500000
