15
Properties=species:S:1:pos:R:3 gdb_45902=T pbc="F F F"
O        0.35760000       0.47270000      -0.80870000
C       -0.04710000       1.24420000       0.01550000
N       -1.29950000       1.79630000       0.03000000
C       -1.68270000       2.95830000       0.72420000
C       -0.91440000       4.04630000       0.79890000
C        0.40450000       4.20780000       0.08370000
N        1.57350000       3.72870000       0.83730000
C        1.61600000       2.54980000       1.26600000
O        0.68350000       1.54140000       1.16380000
H       -1.92320000       1.40550000      -0.66160000
H       -2.65490000       2.90680000       1.20520000
H       -1.25240000       4.86790000       1.42200000
H        0.36090000       3.70210000      -0.89020000
H        0.57520000       5.26750000      -0.12040000
H        2.45430000       2.20470000       1.86620000
