18
Properties=species:S:1:pos:R:3 gdb_36779=T pbc="F F F"
N       -0.02150000      -1.09660000      -0.40270000
C        0.02020000       0.02010000      -0.10970000
C        0.09770000       1.43150000       0.25250000
C        1.47770000       2.02770000      -0.05020000
O        1.42760000       3.38110000       0.34170000
C        2.63920000       4.06750000       0.16140000
C        2.96270000       4.60630000      -1.25450000
O        3.01210000       5.95910000      -0.75800000
C        2.55310000       5.55100000       0.54730000
H       -0.66700000       1.99110000      -0.29600000
H       -0.12060000       1.54720000       1.31920000
H        2.25720000       1.48450000       0.50580000
H        1.70310000       1.92780000      -1.12230000
H        3.46740000       3.51820000       0.62890000
H        3.91250000       4.29940000      -1.70650000
H        2.14500000       4.45440000      -1.97190000
H        1.52420000       5.87230000       0.75110000
H        3.21540000       5.89870000       1.34710000
