23
Properties=species:S:1:pos:R:3 gdb_115852=T pbc="F F F"
C       -0.04190000       1.36520000      -0.23530000
O       -0.04620000      -0.01390000       0.04530000
C       -1.34640000      -0.58070000       0.11030000
C       -2.03720000      -0.72910000      -1.27690000
C       -2.74890000      -2.10430000      -1.27230000
C       -2.14340000      -2.90260000      -0.12070000
C       -0.64850000      -3.11050000      -0.05770000
C        0.32030000      -2.99290000      -1.21630000
C       -1.28320000      -1.97090000       0.71140000
H        0.99660000       1.70380000      -0.19120000
H       -0.44110000       1.59380000      -1.23540000
H       -0.63060000       1.93260000       0.50420000
H       -1.96830000       0.05240000       0.76600000
H       -2.73950000       0.08560000      -1.47320000
H       -1.26900000      -0.67490000      -2.05270000
H       -3.82090000      -1.97790000      -1.08560000
H       -2.65970000      -2.61410000      -2.23840000
H       -2.77680000      -3.64530000       0.35340000
H       -0.37740000      -3.92810000       0.60810000
H        1.31260000      -2.69920000      -0.85980000
H        0.41750000      -3.95940000      -1.72420000
H        0.01710000      -2.26010000      -1.96410000
H       -1.26720000      -2.03080000       1.79420000
