21
Properties=species:S:1:pos:R:3 gdb_59795=T pbc="F F F"
C       -0.31960000       1.85840000       0.30620000
C       -0.18360000       0.41710000      -0.19180000
C        0.79820000      -0.38820000       0.67720000
N       -1.49950000      -0.21120000      -0.17200000
C       -1.74570000      -1.19010000      -0.95850000
N       -0.92430000      -1.81340000      -1.86010000
C       -3.13440000      -1.80830000      -0.91950000
C       -4.08720000      -1.31580000       0.13910000
O       -3.42760000      -2.65960000      -1.73390000
H        0.64750000       2.37130000       0.29380000
H       -1.01740000       2.41960000      -0.32180000
H       -0.70710000       1.86790000       1.32990000
H        0.22150000       0.45730000      -1.22030000
H        0.91050000      -1.41130000       0.30670000
H        1.78500000       0.08580000       0.68650000
H        0.43000000      -0.43890000       1.70660000
H       -0.08960000      -1.35190000      -2.17790000
H       -1.40040000      -2.42110000      -2.51110000
H       -4.17440000      -0.22790000       0.09460000
H       -5.05760000      -1.79350000       0.00110000
H       -3.68950000      -1.54740000       1.13210000
