16
Properties=species:S:1:pos:R:3 gdb_79955=T pbc="F F F"
O        0.20360000       1.35860000       0.02110000
C        0.01500000      -0.01390000       0.03590000
C       -0.44150000      -0.79750000       1.25620000
C       -1.12840000       0.01820000       2.29390000
C       -2.25430000       0.57840000       1.84450000
C       -2.56810000       0.13180000       0.41750000
C       -2.88150000       1.25010000      -0.48160000
N       -3.17040000       2.13010000      -1.17260000
C       -1.33280000      -0.68600000       0.00730000
H       -0.32930000       1.75580000       0.72140000
H        0.78040000      -0.49330000      -0.56550000
H        0.07350000      -1.71020000       1.53390000
H       -0.72200000       0.16090000       3.28870000
H       -2.90060000       1.25920000       2.38400000
H       -3.45540000      -0.51650000       0.42320000
H       -1.48560000      -1.52350000      -0.66200000
