13
Properties=species:S:1:pos:R:3 gdb_133564=T pbc="F F F"
F       -0.30640000       0.12620000      -0.25140000
C       -0.05270000       1.39700000       0.02850000
F        1.27300000       1.56040000       0.11290000
F       -0.49410000       2.15450000      -0.98290000
C       -0.71540000       1.81670000       1.32480000
N       -1.42140000       1.06700000       2.05650000
C       -1.84160000       1.90990000       3.19180000
C       -1.20280000       3.29740000       2.91430000
O       -0.49150000       3.10440000       1.66260000
H       -2.93430000       1.94750000       3.23350000
H       -1.49260000       1.46250000       4.12720000
H       -1.93200000       4.09740000       2.76630000
H       -0.47650000       3.60780000       3.66900000
