15
Properties=species:S:1:pos:R:3 gdb_45383=T pbc="F F F"
N       -0.07700000       1.22960000      -0.47250000
C       -0.01720000       0.05140000      -0.06440000
O        1.00060000      -0.66400000       0.53780000
C        0.20150000      -1.88140000       0.59560000
C       -0.54140000      -2.02520000       1.93480000
C       -1.74100000      -1.21140000       1.36090000
C       -1.00830000      -1.10280000      -0.02700000
C       -1.72100000      -1.46660000      -1.22360000
N       -2.29930000      -1.79010000      -2.17090000
H        0.79710000       1.73470000      -0.32110000
H        0.71160000      -2.72200000       0.12890000
H       -0.80000000      -3.05970000       2.16940000
H       -0.00970000      -1.58850000       2.78140000
H       -2.66320000      -1.78780000       1.28880000
H       -1.95690000      -0.24730000       1.82160000
