15
Properties=species:S:1:pos:R:3 gdb_49492=T pbc="F F F"
O       -0.76800000       0.82480000       0.41800000
C        0.19450000       0.96030000      -0.29620000
C        1.30280000       1.95850000      -0.09900000
C        1.13360000       3.46760000      -0.49870000
C        0.19380000       3.69800000       0.70150000
C        1.41930000       2.86000000       1.17220000
O        2.28730000       3.77730000       0.36240000
C        1.82410000       2.49040000       2.49190000
C        2.14610000       2.16820000       3.60390000
H        0.32580000       0.32160000      -1.19930000
H        2.26380000       1.56140000      -0.43540000
H        1.11980000       3.89830000      -1.49830000
H        0.18790000       4.72130000       1.07600000
H       -0.77920000       3.21070000       0.71980000
H        2.43130000       1.88480000       4.58730000
