22
Properties=species:S:1:pos:R:3 gdb_9428=T pbc="F F F"
C        0.70570000       0.98570000      -1.00420000
C       -0.04980000       0.12140000      -0.00890000
O        0.88140000      -0.46880000       0.87460000
C        0.28340000      -1.29300000       1.84860000
C        1.37990000      -1.85350000       2.75320000
C        2.13880000      -0.74840000       3.48780000
O        0.70960000      -2.74350000       3.63380000
C        1.54990000      -3.64770000       4.31010000
H        1.41760000       0.38180000      -1.57400000
H        0.01030000       1.45720000      -1.70510000
H        1.26200000       1.77150000      -0.48520000
H       -0.77790000       0.72740000       0.55670000
H       -0.62400000      -0.66150000      -0.53290000
H       -0.44060000      -0.72570000       2.45790000
H       -0.26100000      -2.12920000       1.38270000
H        2.08410000      -2.41990000       2.12080000
H        2.97360000      -1.14670000       4.07130000
H        2.53710000      -0.03530000       2.76220000
H        1.46390000      -0.21750000       4.16760000
H        2.16370000      -4.23490000       3.60850000
H        2.22420000      -3.14980000       5.02180000
H        0.90430000      -4.33120000       4.86770000
