18
Properties=species:S:1:pos:R:3 gdb_79045=T pbc="F F F"
C       -0.17970000       1.59530000      -0.14760000
C       -0.00890000       0.10450000       0.05060000
N        1.16600000      -0.55980000      -0.70800000
C        2.13010000      -0.14270000       0.43320000
C        2.54390000      -1.53710000       0.88650000
O        2.42480000      -1.55910000       2.33260000
C        1.20780000      -0.81670000       2.64060000
C        0.82280000      -0.47100000       1.21570000
C        1.13890000      -1.70900000       0.32600000
H        0.74170000       2.14640000       0.06050000
H       -0.47450000       1.80310000      -1.18100000
H       -0.96340000       1.98340000       0.51150000
H       -0.94710000      -0.42700000      -0.14930000
H        2.68850000       0.79160000       0.41280000
H        3.44020000      -2.08470000       0.60090000
H        0.50060000      -1.46980000       3.16270000
H        1.45300000       0.04170000       3.27450000
H        0.51700000      -2.59260000       0.18260000
