16
Properties=species:S:1:pos:R:3 gdb_29087=T pbc="F F F"
C       -0.16250000       1.52700000       0.05420000
C       -0.02600000       0.04030000      -0.04340000
C        0.24940000      -0.61120000      -1.17590000
O        0.36900000      -1.98660000      -1.23360000
C        0.20840000      -2.75060000      -0.11490000
N        0.31350000      -4.01130000      -0.14350000
C       -0.10330000      -2.06610000       1.19140000
N       -0.27210000      -2.67640000       2.29550000
N       -0.19960000      -0.69240000       1.12390000
H        0.57000000       1.94660000       0.75430000
H       -0.00620000       1.99230000      -0.92060000
H       -1.15990000       1.81020000       0.41180000
H        0.40320000      -0.14860000      -2.13750000
H        0.52550000      -4.33810000      -1.08670000
H       -0.16050000      -3.67730000       2.13210000
H       -0.40710000      -0.22690000       1.99440000
