21
Properties=species:S:1:pos:R:3 gdb_104160=T pbc="F F F"
C        0.37450000       1.56830000      -0.07330000
C        0.15940000       0.07290000       0.06860000
C        0.38310000      -0.76130000      -1.21340000
C        1.10010000      -2.04250000      -0.72910000
O        0.37790000      -3.19610000      -1.12550000
C        2.52360000      -2.12570000      -1.27890000
O        3.05980000      -3.36970000      -0.83370000
C        1.11220000      -1.84640000       0.81010000
O        1.10100000      -0.44610000       1.01040000
H        1.38230000       1.77440000      -0.44810000
H       -0.35130000       1.99590000      -0.77200000
H        0.25810000       2.06680000       0.89300000
H       -0.85880000      -0.11850000       0.44790000
H       -0.55020000      -1.03250000      -1.71030000
H        0.99910000      -0.20880000      -1.93140000
H        0.99380000      -3.93470000      -1.03210000
H        2.49260000      -2.08160000      -2.37700000
H        3.11250000      -1.27470000      -0.90690000
H        3.88470000      -3.53760000      -1.29680000
H        0.21010000      -2.32390000       1.22370000
H        1.99630000      -2.26250000       1.29790000
