14
Properties=species:S:1:pos:R:3 gdb_20462=T pbc="F F F"
C       -0.01800000       1.50910000       0.20220000
N        1.28350000       1.95120000      -0.38850000
C        2.20800000       0.78230000      -0.51950000
C        1.29070000      -0.39410000      -0.37370000
N        1.31680000      -1.71670000      -0.47530000
N        0.06650000      -2.04150000      -0.12140000
N       -0.76120000      -1.03820000       0.19870000
C        0.02290000       0.01990000       0.03740000
H       -0.07130000       1.79430000       1.26110000
H       -0.85330000       1.99890000      -0.30640000
H        1.09570000       2.30100000      -1.32000000
H        2.74320000       0.82460000      -1.47250000
H        2.96310000       0.80360000       0.27730000
H       -0.25030000      -2.99750000      -0.13590000
