19
Properties=species:S:1:pos:R:3 gdb_51174=T pbc="F F F"
O       -0.57610000       0.39160000       0.40500000
C        0.21320000       0.82430000      -0.39420000
C        1.28760000       1.84930000      -0.08550000
C        1.24850000       3.02020000      -1.04580000
C        1.92600000       2.93040000      -2.41090000
C        2.44210000       3.88090000      -1.35940000
O        2.08160000       5.23180000      -1.42510000
C        0.66210000       5.29920000      -1.57460000
C        0.08820000       4.00840000      -0.94990000
H        0.19850000       0.48740000      -1.45690000
H        1.16830000       2.17250000       0.95400000
H        2.25740000       1.33870000      -0.17300000
H        2.52340000       2.04590000      -2.60790000
H        1.42210000       3.32710000      -3.28570000
H        3.41970000       3.74000000      -0.91270000
H        0.31630000       6.21260000      -1.08400000
H        0.39830000       5.36810000      -2.63890000
H       -0.82060000       3.68040000      -1.46390000
H       -0.16290000       4.15880000       0.10590000
