21
Properties=species:S:1:pos:R:3 gdb_113767=T pbc="F F F"
C        0.31820000       0.98880000      -0.02140000
O       -0.15140000      -0.17460000      -0.67520000
C       -1.38450000      -0.61070000      -0.20440000
C       -1.79940000      -1.98690000      -0.60050000
C       -1.46350000      -1.70040000       0.85490000
C       -0.19510000      -2.29220000       1.46020000
C        0.07510000      -1.74930000       2.87210000
C       -0.35280000      -3.80180000       1.50520000
O        0.25300000      -4.58490000       0.82050000
H        1.26470000       1.26110000      -0.49340000
H       -0.38920000       1.82400000      -0.13320000
H        0.48730000       0.81920000       1.05100000
H       -2.14610000       0.17000000      -0.16670000
H       -2.83030000      -2.16650000      -0.88340000
H       -1.06700000      -2.56330000      -1.15610000
H       -2.30550000      -1.63340000       1.54020000
H        0.64620000      -2.07520000       0.79560000
H        0.11330000      -0.65640000       2.86780000
H       -0.71850000      -2.04930000       3.56660000
H        1.02510000      -2.12230000       3.26680000
H       -1.12160000      -4.15410000       2.23580000
