17
Properties=species:S:1:pos:R:3 gdb_23594=T pbc="F F F"
O       -0.16140000       1.32040000       0.11590000
N        0.00410000      -0.07400000       0.07240000
C       -1.12230000      -0.67030000       0.04360000
C       -1.22210000      -2.15380000      -0.09070000
C       -2.00720000      -2.91540000       0.96340000
C       -2.70180000      -2.42510000      -0.27750000
N       -3.45180000      -1.15920000      -0.31440000
C       -3.53770000      -0.39210000       0.92980000
C       -2.48470000      -0.06440000      -0.07490000
H        0.74830000       1.63480000       0.08020000
H       -0.44150000      -2.66750000      -0.63780000
H       -1.81620000      -3.98230000       1.01230000
H       -2.18840000      -2.46380000       1.93030000
H       -3.06400000      -3.15270000      -0.99380000
H       -4.40830000       0.25450000       0.99840000
H       -3.24780000      -0.84550000       1.87080000
H       -2.57170000       0.83660000      -0.67360000
