14
Properties=species:S:1:pos:R:3 gdb_61730=T pbc="F F F"
C       -0.05890000       1.82340000       0.10320000
C       -0.03200000       0.30040000      -0.02990000
O        0.60430000      -0.01400000      -1.28260000
C        0.18460000      -1.12480000      -1.93630000
O        0.66750000      -1.47530000      -2.96650000
C        0.68490000      -0.34210000       1.07150000
C        1.26830000      -0.86860000       1.98800000
C        1.92800000      -1.46260000       3.02620000
N        2.48510000      -1.96660000       3.91170000
H        0.95820000       2.22010000       0.08900000
H       -0.61870000       2.24830000      -0.73290000
H       -0.53950000       2.11050000       1.04140000
H       -1.06130000      -0.08530000      -0.04360000
H       -0.64490000      -1.64340000      -1.41830000
