21
Properties=species:S:1:pos:R:3 gdb_122287=T pbc="F F F"
C        0.22250000       0.98600000      -0.95220000
C       -0.13290000       0.00460000       0.15120000
O       -1.32590000      -0.66490000      -0.20950000
C       -1.74920000      -1.60450000       0.75080000
C       -3.01390000      -2.23440000       0.24470000
C       -4.41320000      -1.60560000       0.01850000
C       -4.51320000      -3.14300000      -0.10470000
C       -3.24070000      -3.15570000      -0.98190000
O       -3.65120000      -3.26800000       1.09930000
H        1.14340000       1.52160000      -0.70320000
H        0.37130000       0.46050000      -1.89970000
H       -0.57920000       1.71740000      -1.08790000
H        0.68070000      -0.72550000       0.29910000
H       -0.26990000       0.53120000       1.11080000
H       -0.98820000      -2.38650000       0.91150000
H       -1.94190000      -1.12530000       1.72530000
H       -4.87670000      -1.18120000       0.91020000
H       -4.56530000      -1.00120000      -0.87830000
H       -5.39620000      -3.77940000      -0.15360000
H       -3.28580000      -2.69260000      -1.97000000
H       -2.67690000      -4.08940000      -0.96680000
