17
Properties=species:S:1:pos:R:3 gdb_105339=T pbc="F F F"
O        0.14750000       1.34240000      -0.18840000
C        0.04700000      -0.04280000       0.07180000
C       -1.40920000      -0.53430000       0.02090000
C       -2.10570000      -0.49470000      -1.40520000
C       -2.23560000      -2.01910000      -1.33480000
O       -0.91490000      -2.55820000      -1.17370000
C       -1.59440000      -2.08080000      -0.01490000
C       -2.20220000       0.10910000       1.05430000
C       -2.82190000       0.65980000       1.92700000
H       -0.37440000       1.79780000       0.48280000
H        0.61390000      -0.55290000      -0.70980000
H        0.48500000      -0.30980000       1.04610000
H       -3.06340000       0.02640000      -1.37870000
H       -1.48760000      -0.10590000      -2.21660000
H       -2.97890000      -2.66590000      -1.78470000
H       -1.71740000      -2.75570000       0.82380000
H       -3.38480000       1.13520000       2.69210000
