19
Properties=species:S:1:pos:R:3 gdb_59261=T pbc="F F F"
C       -0.00780000       1.52480000       0.02350000
C        0.04500000      -0.00270000      -0.01790000
O        0.87280000      -0.52730000       1.02220000
C       -1.34620000      -0.61370000       0.00450000
C       -1.98770000      -1.30180000      -1.18660000
O       -0.99670000      -1.97130000      -1.97150000
C       -0.64910000      -2.83820000      -0.85310000
C       -1.62180000      -2.09120000       0.05700000
O       -2.33580000      -2.62950000       1.10480000
H        1.00280000       1.94000000      -0.00700000
H       -0.57510000       1.92000000      -0.82580000
H       -0.49360000       1.87380000       0.94340000
H        0.54020000      -0.31730000      -0.94160000
H        0.41890000      -0.38330000       1.86000000
H       -2.08820000      -0.07560000       0.59510000
H       -2.90870000      -1.00260000      -1.67300000
H       -0.95800000      -3.86990000      -1.06440000
H        0.41370000      -2.80390000      -0.59750000
H       -2.82810000      -3.39260000       0.78030000
