12
Properties=species:S:1:pos:R:3 gdb_23992=T pbc="F F F"
C        0.12350000      -1.17640000      -0.00430000
C        0.02870000       0.02410000       0.00300000
C       -0.08310000       1.42560000       0.01160000
C       -1.18210000       2.27500000       0.03140000
N       -0.79450000       3.57560000       0.03230000
C        0.52970000       3.54870000       0.01340000
N        1.00590000       2.26820000       0.00030000
C        1.39630000       4.67140000       0.00670000
N        2.13700000       5.56120000       0.00060000
H        0.20070000      -2.23590000      -0.01070000
H       -2.22220000       1.98940000       0.04470000
H        1.97280000       1.98400000      -0.01480000
