18
Properties=species:S:1:pos:R:3 gdb_70917=T pbc="F F F"
C        0.04880000       1.50820000       0.04060000
C        0.00710000       0.00480000       0.00680000
C        0.64140000      -0.94430000      -1.11690000
C       -0.05270000      -1.87540000      -0.08810000
C        0.57910000      -0.99280000       1.04140000
N       -0.57090000      -3.19770000       0.22820000
C       -1.66250000      -2.88120000       0.81750000
O       -2.08160000      -1.56310000       0.87330000
C       -1.23700000      -0.94040000      -0.12870000
H        1.08230000       1.87010000       0.05540000
H       -0.44750000       1.93940000      -0.83510000
H       -0.45390000       1.88940000       0.93560000
H        0.19930000      -0.89050000      -2.11540000
H        1.73260000      -0.94880000      -1.15260000
H        1.66660000      -1.03120000       1.13470000
H        0.08510000      -1.02700000       2.01330000
H       -2.32880000      -3.57250000       1.32120000
H       -1.82070000      -0.84440000      -1.05000000
