16
Properties=species:S:1:pos:R:3 gdb_4973=T pbc="F F F"
C        0.01300000       1.51190000      -0.04600000
C        0.00940000       0.00760000      -0.00840000
N       -0.01090000      -0.63210000      -1.17940000
C       -0.01420000      -1.96730000      -1.14730000
C        0.00270000      -2.66720000       0.05000000
N        0.02310000      -2.04010000       1.22900000
C        0.02660000      -0.70570000       1.21170000
C        0.04950000      -0.00030000       2.54080000
H        0.90110000       1.92380000       0.44740000
H       -0.00160000       1.84810000      -1.08350000
H       -0.85780000       1.92850000       0.47360000
H       -0.03070000      -2.48480000      -2.10300000
H       -0.00010000      -3.75410000       0.06810000
H        0.93210000       0.64240000       2.63900000
H       -0.82670000       0.64620000       2.66720000
H        0.06070000      -0.73950000       3.34270000
