19
Properties=species:S:1:pos:R:3 gdb_72703=T pbc="F F F"
O       -0.16930000       1.35950000      -0.12540000
C       -0.03290000      -0.05030000      -0.03750000
C        0.14550000      -0.50270000       1.45160000
C       -1.42750000      -0.57610000       1.55570000
C       -1.42280000      -0.71650000       0.03170000
C       -2.04870000      -0.46190000      -1.34480000
C       -0.86150000      -1.43000000      -1.68260000
C        0.47400000      -0.69600000      -1.35590000
O       -1.09740000      -2.07670000      -0.39590000
H        0.68620000       1.75320000       0.07420000
H        0.60650000      -1.48540000       1.54740000
H        0.64940000       0.21270000       2.10600000
H       -1.87490000      -1.39540000       2.12060000
H       -1.84540000       0.37800000       1.88000000
H       -3.00500000      -0.96130000      -1.50550000
H       -2.04290000       0.56030000      -1.72630000
H       -0.89670000      -2.10590000      -2.53730000
H        0.76750000       0.06660000      -2.08180000
H        1.27960000      -1.42570000      -1.24480000
