21
Properties=species:S:1:pos:R:3 gdb_105170=T pbc="F F F"
C        0.10300000       1.50320000      -0.02110000
C        0.06050000       0.04730000      -0.03090000
C        0.00150000      -1.15810000      -0.02740000
C        0.01110000      -2.59770000      -0.07180000
C        1.08580000      -3.16250000      -0.99470000
O        2.39450000      -2.79540000      -0.60310000
C       -0.31400000      -3.37220000       1.19840000
C       -1.29510000      -3.37560000       0.05970000
C       -2.62810000      -2.67310000       0.17150000
H        0.74500000       1.88310000       0.78150000
H        0.48800000       1.89670000      -0.96840000
H       -0.89700000       1.92590000       0.12710000
H        1.05300000      -4.25670000      -0.96730000
H        0.87530000      -2.84630000      -2.02890000
H        2.39980000      -1.83420000      -0.52240000
H        0.27420000      -4.26200000       1.39600000
H       -0.56650000      -2.79210000       2.07910000
H       -1.31830000      -4.28730000      -0.53340000
H       -2.53770000      -1.74530000       0.74290000
H       -3.02610000      -2.41690000      -0.81620000
H       -3.36170000      -3.31260000       0.67430000
