14
Properties=species:S:1:pos:R:3 gdb_21011=T pbc="F F F"
C        0.01990000       1.39300000       0.09400000
N       -0.01860000      -0.05050000      -0.01360000
C       -0.09250000      -0.79970000      -1.14390000
C       -0.05450000      -2.11780000      -0.75230000
C        0.04690000      -2.06570000       0.66070000
N        0.06970000      -0.79600000       1.09720000
C        0.11390000      -3.16060000       1.55870000
C        0.16970000      -4.11390000       2.29110000
H        1.02190000       1.73370000       0.37160000
H       -0.25560000       1.82800000      -0.86810000
H       -0.68830000       1.71970000       0.85790000
H       -0.16660000      -0.34160000      -2.11750000
H       -0.09940000      -2.99480000      -1.37560000
H        0.21890000      -4.94740000       2.94670000
