21
Properties=species:S:1:pos:R:3 gdb_57469=T pbc="F F F"
C        0.07000000       1.55890000       0.02840000
C        0.01390000       0.02100000       0.03900000
C        0.63540000      -0.52940000       1.33540000
C       -1.44620000      -0.44630000      -0.09950000
C        0.81420000      -0.55470000      -1.14170000
O        0.39970000      -0.07470000      -2.45020000
C        1.70950000       0.41040000      -2.80610000
C        2.22510000      -0.01510000      -1.42670000
O        3.25620000       0.05910000      -0.83020000
H        1.09240000       1.92560000       0.16930000
H       -0.31330000       1.95390000      -0.91670000
H       -0.54150000       1.96740000       0.83900000
H        0.10230000      -0.13590000       2.20680000
H        0.57320000      -1.62270000       1.37300000
H        1.68910000      -0.24810000       1.42230000
H       -1.87640000      -0.10540000      -1.04540000
H       -1.51700000      -1.53910000      -0.06800000
H       -2.05540000      -0.04670000       0.71830000
H        0.78840000      -1.65460000      -1.10530000
H        2.15250000      -0.12930000      -3.65300000
H        1.72890000       1.48840000      -3.00880000
