18
Properties=species:S:1:pos:R:3 gdb_68983=T pbc="F F F"
C       -0.18610000       1.47910000       0.13820000
C        0.17190000       0.03410000       0.01580000
C        0.61730000      -0.74180000      -1.23840000
C        1.38140000      -1.74260000      -0.30240000
C        0.88580000      -0.91720000       0.89430000
C        1.52190000      -0.74930000       2.24860000
C        1.53060000      -1.99540000       3.02020000
N        1.54750000      -2.98430000       3.61690000
O       -0.54520000      -0.91560000       0.83040000
H        0.58540000       2.11080000      -0.31350000
H       -1.13120000       1.68330000      -0.37750000
H       -0.30830000       1.76480000       1.18640000
H       -0.20100000      -1.15360000      -1.83310000
H        1.28990000      -0.17220000      -1.88430000
H        1.04890000      -2.78230000      -0.30960000
H        2.46480000      -1.70300000      -0.43990000
H        2.55750000      -0.40670000       2.13770000
H        0.97870000       0.01400000       2.81490000
