18
Properties=species:S:1:pos:R:3 gdb_73197=T pbc="F F F"
C        0.16290000       1.51360000      -0.22200000
C        0.10820000       0.03630000       0.04620000
O       -1.23820000      -0.45220000       0.25720000
C       -0.87110000      -1.09560000       1.50780000
C        0.61090000      -0.77210000       1.27450000
N        1.24480000      -1.76400000       0.37140000
C        0.96710000      -0.93860000      -0.83200000
C        0.21200000      -1.64520000      -1.93840000
O        0.16150000      -1.23740000      -3.07070000
H        1.19710000       1.86720000      -0.27200000
H       -0.32000000       1.73340000      -1.18060000
H       -0.36460000       2.06630000       0.56070000
H       -1.33330000      -0.58340000       2.36110000
H       -1.12200000      -2.16050000       1.52220000
H        1.21640000      -0.38060000       2.09290000
H        2.22990000      -1.91700000       0.54620000
H        1.83640000      -0.42750000      -1.26310000
H       -0.31330000      -2.56730000      -1.61110000
