24
Properties=species:S:1:pos:R:3 gdb_6409=T pbc="F F F"
C        0.88500000      -0.31690000      -1.08820000
C       -0.02030000       0.06560000       0.09110000
C       -0.15900000       1.59140000       0.18940000
C       -1.41340000      -0.58660000       0.00070000
C       -1.45840000      -2.12520000       0.01960000
C       -0.87850000      -2.72810000       1.30610000
C       -2.89870000      -2.59700000      -0.19310000
O       -2.89710000      -4.01120000      -0.33650000
H        1.85800000       0.17950000      -1.00960000
H        1.06860000      -1.39420000      -1.13750000
H        0.43440000      -0.01210000      -2.04090000
H        0.46230000      -0.28080000       1.01460000
H       -0.63440000       2.00150000      -0.71000000
H       -0.77110000       1.88250000       1.04980000
H        0.81900000       2.07270000       0.29490000
H       -2.02580000      -0.21090000       0.83330000
H       -1.90000000      -0.22790000      -0.91830000
H       -0.88480000      -2.51150000      -0.83290000
H       -1.02670000      -3.81020000       1.31480000
H        0.19280000      -2.53040000       1.40360000
H       -1.37630000      -2.30990000       2.19020000
H       -3.51810000      -2.28670000       0.66550000
H       -3.31620000      -2.11290000      -1.09070000
H       -3.80910000      -4.30910000      -0.39420000
