15
Properties=species:S:1:pos:R:3 gdb_87619=T pbc="F F F"
O        0.01910000       1.37400000      -0.05260000
C        0.05020000      -0.00620000       0.03070000
C       -0.37070000      -0.73140000       1.25770000
C       -1.29220000      -0.75310000       0.03780000
N       -2.47350000       0.05980000       0.01150000
C       -3.31160000      -0.59270000      -0.71010000
N       -2.85060000      -1.80560000      -1.19150000
C       -1.53080000      -1.99380000      -0.75420000
O       -0.81540000      -2.93980000      -0.98420000
H       -0.90120000       1.64550000       0.07180000
H        0.83320000      -0.44600000      -0.57960000
H        0.10870000      -1.67690000       1.48880000
H       -0.72870000      -0.14870000       2.09860000
H       -4.31100000      -0.24920000      -0.95100000
H       -3.35310000      -2.45550000      -1.77390000
