12
Properties=species:S:1:pos:R:3 gdb_132308=T pbc="F F F"
N        0.01490000       1.24830000       0.07590000
C        0.02380000      -0.09300000      -0.02040000
N       -1.22150000      -0.61720000      -0.26210000
C       -1.71070000      -1.72440000      -0.02810000
N       -2.47580000      -2.62350000       0.23000000
O        0.43820000      -2.90370000      -0.14620000
C        1.27820000      -2.04150000      -0.03850000
F        2.56570000      -2.40630000      -0.00860000
N        1.18510000      -0.69400000       0.06750000
H        0.89300000       1.72600000       0.18390000
H       -0.84400000       1.75840000      -0.02810000
H       -2.27780000      -3.58310000      -0.01480000
