19
Properties=species:S:1:pos:R:3 gdb_95466=T pbc="F F F"
C        0.10560000       1.53860000      -0.22420000
C       -0.03410000       0.03730000       0.03020000
O        0.46040000      -0.68960000      -1.09860000
C        1.42290000      -1.65590000      -0.69220000
C        1.57870000      -1.45440000       0.78630000
C        0.75210000      -0.50130000       1.20980000
C        0.56570000       0.01420000       2.60790000
C        1.36260000       1.29010000       2.85910000
O        0.88950000       2.33280000       3.22470000
H        1.15900000       1.81300000      -0.33800000
H       -0.41990000       1.80400000      -1.14550000
H       -0.32230000       2.12140000       0.59720000
H       -1.10600000      -0.19480000       0.16210000
H        1.07010000      -2.67200000      -0.93430000
H        2.36170000      -1.50250000      -1.24680000
H        2.25650000      -2.03920000       1.39680000
H       -0.48550000       0.22280000       2.83010000
H        0.93100000      -0.73310000       3.32440000
H        2.45490000       1.17950000       2.67170000
