24
Properties=species:S:1:pos:R:3 gdb_60560=T pbc="F F F"
C       -0.24890000       1.76320000      -0.33540000
C       -0.04960000       0.26610000      -0.03780000
C       -1.39330000      -0.43230000       0.10950000
C       -1.58970000      -1.61060000       1.02850000
C       -2.21090000      -0.27700000       1.36660000
C        0.77730000      -0.36060000      -1.15440000
C        2.25390000      -0.16390000      -1.23840000
N        1.69590000      -1.49210000      -1.01600000
C        1.94100000      -2.11360000       0.27460000
H        0.70990000       2.28720000      -0.39310000
H       -0.76270000       1.90360000      -1.29370000
H       -0.85780000       2.23800000       0.43960000
H        0.49200000       0.17790000       0.91200000
H       -1.96530000      -0.46190000      -0.81630000
H       -2.23780000      -2.41760000       0.70490000
H       -0.74660000      -1.93470000       1.62840000
H       -1.77580000       0.28490000       2.18740000
H       -3.28620000      -0.16700000       1.27870000
H        0.23120000      -0.39690000      -2.09890000
H        2.75230000       0.00140000      -2.19070000
H        2.72780000       0.33240000      -0.39000000
H        1.97370000      -1.41640000       1.12760000
H        1.16920000      -2.86370000       0.47160000
H        2.90790000      -2.62620000       0.23190000
