16
Properties=species:S:1:pos:R:3 gdb_50982=T pbc="F F F"
O       -0.31470000       1.07290000       1.20290000
C       -0.00060000       1.41070000       0.09550000
C        1.39250000       1.92930000      -0.26880000
N        1.38130000       2.83970000      -1.39410000
C        0.84670000       4.17860000      -1.21060000
C        1.81180000       5.09590000      -0.46650000
O        1.46240000       5.97760000       0.26960000
C        1.84850000       2.46660000      -2.62910000
O        1.84230000       3.17030000      -3.61290000
H       -0.70060000       1.35040000      -0.76960000
H        1.84400000       2.37950000       0.62210000
H        2.00110000       1.05440000      -0.53340000
H        0.69620000       4.59710000      -2.21310000
H       -0.11370000       4.16550000      -0.68550000
H        2.88580000       4.88940000      -0.67930000
H        2.23970000       1.43090000      -2.62510000
