21
Properties=species:S:1:pos:R:3 gdb_117364=T pbc="F F F"
C        0.95670000       0.97080000      -0.19680000
C        0.39050000      -0.41220000       0.13410000
N        0.76770000      -1.42660000      -0.83800000
C       -0.11560000      -1.93550000      -1.74360000
O       -1.28820000      -1.60770000      -1.79640000
C        0.45860000      -2.95840000      -2.73570000
C        1.78650000      -3.57200000      -2.36630000
C        2.78410000      -3.95730000      -3.38990000
N        3.03650000      -2.78890000      -2.52220000
H        2.05140000       0.95550000      -0.23420000
H        0.58620000       1.31710000      -1.16600000
H        0.65770000       1.69780000       0.56510000
H        0.72630000      -0.72990000       1.12860000
H       -0.70100000      -0.38760000       0.13990000
H        1.73150000      -1.72130000      -0.87860000
H       -0.30940000      -3.72930000      -2.85430000
H        0.53440000      -2.45390000      -3.70830000
H        1.77720000      -4.15110000      -1.44450000
H        3.44000000      -4.80550000      -3.21850000
H        2.53910000      -3.77700000      -4.43320000
H        2.83330000      -1.94260000      -3.05180000
