19
Properties=species:S:1:pos:R:3 gdb_76982=T pbc="F F F"
C       -0.17410000       1.46660000      -0.06980000
C        0.03810000      -0.02020000      -0.05550000
C       -0.88270000      -0.97490000       0.64930000
C        0.56450000      -0.93620000       1.06070000
C        1.42910000      -1.73690000       0.05230000
C        1.07360000      -3.18950000      -0.03270000
O        0.17900000      -3.63410000      -0.72280000
C        0.91350000      -0.76660000      -1.07990000
O        0.35170000      -1.29460000      -2.24430000
H        0.77090000       2.00480000      -0.20690000
H       -0.84220000       1.75550000      -0.88950000
H       -0.62690000       1.81540000       0.86410000
H       -1.56550000      -0.50720000       1.35200000
H       -1.29600000      -1.84600000       0.14960000
H        0.88370000      -0.68050000       2.06360000
H        2.49930000      -1.63180000       0.25110000
H        1.65790000      -3.87320000       0.62140000
H        1.73750000      -0.11580000      -1.39300000
H       -0.08600000      -2.12270000      -1.99980000
