19
Properties=species:S:1:pos:R:3 gdb_32633=T pbc="F F F"
C       -0.04090000       1.54340000       0.04930000
C       -0.01060000       0.01530000      -0.04520000
N        0.71900000      -0.47740000      -1.20190000
C        0.17350000      -0.84320000      -2.39010000
N        1.08770000      -1.19870000      -3.27320000
C        2.27280000      -1.04920000      -2.61780000
O        3.45660000      -1.33180000      -3.21550000
C        2.10370000      -0.60300000      -1.32950000
C        3.09060000      -0.32900000      -0.24890000
H        0.96820000       1.95490000       0.13580000
H       -0.50940000       1.97590000      -0.83940000
H       -0.61310000       1.85480000       0.92870000
H        0.43800000      -0.41380000       0.85660000
H       -1.02910000      -0.37910000      -0.11170000
H       -0.89380000      -0.83740000      -2.55480000
H        3.23950000      -1.63490000      -4.10500000
H        3.11870000       0.72550000       0.05500000
H        2.90480000      -0.92370000       0.65490000
H        4.08660000      -0.59050000      -0.61390000
