15
Properties=species:S:1:pos:R:3 gdb_131681=T pbc="F F F"
O       -0.02300000       1.45010000       0.00890000
C        0.03030000       0.03140000       0.00180000
C       -1.36960000      -0.48750000       0.01160000
C       -2.53480000       0.24260000       0.02300000
N       -3.54970000      -0.65990000       0.02850000
N       -3.13900000      -1.93390000       0.02130000
C       -1.80070000      -1.84370000       0.01120000
C       -0.97070000      -2.99250000       0.00140000
C       -0.21700000      -3.93120000      -0.00740000
H        0.87890000       1.78250000       0.00300000
H        0.56110000      -0.34570000      -0.88750000
H        0.57650000      -0.35400000       0.87820000
H       -2.70160000       1.30650000       0.02760000
H       -4.53800000      -0.47250000       0.03700000
H        0.43240000      -4.77080000      -0.01560000
