21
Properties=species:S:1:pos:R:3 gdb_92480=T pbc="F F F"
C       -0.19310000       1.52620000      -0.02950000
C        0.06110000       0.02560000       0.01630000
O        0.79310000      -0.35610000      -1.16380000
C        1.85650000      -1.26100000      -0.85880000
C        2.94080000      -0.51280000      -0.07150000
C        2.28580000       0.00120000       1.24120000
C        0.82890000      -0.48000000       1.24770000
O        0.81550000      -1.91130000       1.22580000
C        1.30910000      -2.41640000      -0.02030000
H        0.74100000       2.09440000      -0.00040000
H       -0.71090000       1.78160000      -0.95820000
H       -0.82170000       1.83910000       0.81080000
H       -0.90650000      -0.49960000       0.00710000
H        2.22950000      -1.62820000      -1.81870000
H        3.78520000      -1.17880000       0.13440000
H        3.31470000       0.31260000      -0.68300000
H        2.78660000      -0.40570000       2.12350000
H        2.33490000       1.09130000       1.31700000
H        0.30820000      -0.19150000       2.16450000
H        0.49530000      -2.91900000      -0.56060000
H        2.09430000      -3.15640000       0.18460000
