19
Properties=species:S:1:pos:R:3 gdb_26952=T pbc="F F F"
N        0.13800000       1.39810000      -0.26450000
C       -0.00560000       0.00070000      -0.08210000
C       -1.09120000      -0.82810000       0.14250000
C       -0.57730000      -2.15760000       0.24040000
C        0.78700000      -2.09750000       0.07450000
N        1.12310000      -0.78630000      -0.12020000
C       -2.49600000      -0.38180000       0.25300000
C       -3.63740000      -1.22700000      -0.27650000
C       -3.46490000      -1.05150000       1.20720000
H       -0.19050000       1.92210000       0.54010000
H       -0.37900000       1.73100000      -1.07170000
H       -1.14760000      -3.05840000       0.41350000
H        1.53520000      -2.87350000       0.07940000
H        2.04420000      -0.41300000      -0.27100000
H       -2.62170000       0.69160000       0.14060000
H       -4.46600000      -0.72450000      -0.76390000
H       -3.37970000      -2.18680000      -0.71110000
H       -3.08990000      -1.89190000       1.78130000
H       -4.17490000      -0.42820000       1.74030000
