20
Properties=species:S:1:pos:R:3 gdb_82812=T pbc="F F F"
C        0.04580000       1.49790000       0.03920000
C        0.02410000      -0.00970000       0.00520000
C        0.46800000      -0.73550000      -1.28230000
C       -0.73410000      -1.67680000      -1.08970000
C       -0.50910000      -2.78830000      -0.04730000
C       -0.77330000      -1.72370000       1.02830000
C        0.42310000      -0.77820000       1.28130000
O        1.73820000      -1.28590000       1.28240000
N       -1.33540000      -0.74710000      -0.01770000
H        1.07940000       1.86350000       0.06990000
H       -0.43820000       1.91630000      -0.84900000
H       -0.47910000       1.87980000       0.92120000
H        0.34620000      -0.09070000      -2.15710000
H        1.46840000      -1.17360000      -1.29460000
H       -1.34250000      -1.91310000      -1.96510000
H       -1.30260000      -3.53910000      -0.07390000
H        0.46360000      -3.28730000      -0.03280000
H       -1.39990000      -1.98930000       1.88300000
H        0.23730000      -0.15520000       2.16760000
H        1.91810000      -1.67740000       2.14300000
