22
Properties=species:S:1:pos:R:3 gdb_113888=T pbc="F F F"
C       -0.00260000       1.33550000       0.24940000
C       -0.16430000      -0.17080000       0.48230000
C       -1.50520000      -0.69270000       0.01340000
C       -1.71700000      -1.11350000      -1.42320000
C       -1.72460000      -2.14720000      -0.32620000
N       -0.63590000      -3.07800000      -0.26780000
C       -0.23450000      -3.64620000       0.91380000
C        0.79920000      -4.75500000       0.77380000
O       -0.67810000      -3.29590000       1.99070000
H        0.97130000       1.68790000       0.60330000
H       -0.08530000       1.58400000      -0.81430000
H       -0.77410000       1.90310000       0.78130000
H        0.63520000      -0.71340000      -0.03450000
H       -0.05020000      -0.40080000       1.54780000
H       -2.35840000      -0.22090000       0.49470000
H       -2.65180000      -0.88560000      -1.92270000
H       -0.84630000      -1.09340000      -2.07250000
H       -2.68610000      -2.56550000      -0.03780000
H       -0.32810000      -3.49790000      -1.13030000
H        1.35240000      -4.71460000      -0.16870000
H        1.49810000      -4.68810000       1.60900000
H        0.29650000      -5.72560000       0.83870000
