19
Properties=species:S:1:pos:R:3 gdb_111773=T pbc="F F F"
O        0.00310000       0.30350000       1.15410000
C       -0.25010000       0.11910000      -0.24440000
C       -1.56360000      -0.60860000      -0.31090000
C       -2.06530000      -1.57040000      -1.37290000
C       -0.91910000      -2.42230000      -1.89780000
O       -0.49200000      -2.75450000      -0.55280000
C       -1.63650000      -2.07780000      -0.00410000
C       -2.25440000      -2.61090000       1.24610000
O       -1.44080000      -2.32230000       2.37000000
H        0.92370000       0.55630000       1.26970000
H       -0.30020000       1.08990000      -0.75840000
H        0.54210000      -0.48080000      -0.70600000
H       -2.38300000      -0.05340000       0.14270000
H       -3.04420000      -1.47430000      -1.82410000
H       -1.25960000      -3.32070000      -2.42460000
H       -0.13150000      -1.93180000      -2.48140000
H       -3.26420000      -2.17760000       1.34580000
H       -2.36040000      -3.69990000       1.19680000
H       -1.03300000      -1.45710000       2.21840000
