21
Properties=species:S:1:pos:R:3 gdb_32836=T pbc="F F F"
C       -0.04770000       1.60790000       0.17150000
C       -0.00710000       0.07820000       0.15940000
C       -1.38000000      -0.55580000      -0.14420000
C       -1.36990000      -2.05140000      -0.16830000
C       -1.40940000      -2.93620000      -1.22720000
C       -1.33980000      -4.26010000      -0.70140000
N       -1.28110000      -5.44280000      -1.46870000
C       -1.26010000      -4.14790000       0.66940000
N       -1.27240000      -2.79830000       0.97550000
H        0.93700000       2.03160000       0.39190000
H       -0.37050000       2.00300000      -0.79830000
H       -0.74780000       1.98150000       0.92760000
H        0.71500000      -0.27460000      -0.58610000
H        0.35550000      -0.28980000       1.12770000
H       -2.11030000      -0.19150000       0.59330000
H       -1.73240000      -0.19890000      -1.11850000
H       -1.47400000      -2.66470000      -2.27090000
H       -1.87470000      -5.38880000      -2.28750000
H       -1.55240000      -6.25860000      -0.93390000
H       -1.19460000      -4.89880000       1.43990000
H       -1.24030000      -2.42190000       1.90600000
