18
Properties=species:S:1:pos:R:3 gdb_31085=T pbc="F F F"
C        0.20770000       1.08540000      -0.48520000
O       -0.38650000       0.05480000       0.29300000
C        0.45300000      -0.52170000       1.20800000
C        0.77150000      -1.84630000       1.22920000
N        0.50140000      -2.89650000       0.35750000
O        1.55560000      -2.11710000       2.30370000
C        1.74890000      -0.93630000       2.98790000
C        2.57670000      -1.01420000       4.21810000
C        1.09970000       0.07080000       2.35040000
H        1.07400000       0.71220000      -1.04730000
H       -0.55720000       1.43540000      -1.18230000
H        0.53200000       1.92740000       0.14020000
H       -0.16340000      -2.59250000      -0.34420000
H        0.13620000      -3.71470000       0.83450000
H        3.59160000      -1.37140000       4.00570000
H        2.65350000      -0.02350000       4.67220000
H        2.14120000      -1.69520000       4.95940000
H        1.06330000       1.10360000       2.66030000
