21
Properties=species:S:1:pos:R:3 gdb_116390=T pbc="F F F"
C        0.01690000       1.56580000       0.01180000
C        0.01980000       0.03620000      -0.06670000
C       -1.38260000      -0.58000000      -0.05330000
N       -2.14150000      -0.19930000      -1.24830000
C       -3.46860000      -0.79640000      -1.24190000
C       -3.27990000      -2.29650000      -1.35420000
O       -2.43440000      -2.80810000      -0.31440000
C       -1.33540000      -2.09960000       0.07820000
N       -0.36350000      -2.67560000       0.64860000
H        1.04020000       1.94750000       0.07640000
H       -0.43800000       2.03040000      -0.87030000
H       -0.52380000       1.92110000       0.89690000
H        0.53290000      -0.29480000      -0.97600000
H        0.57250000      -0.38410000       0.77560000
H       -1.90170000      -0.23620000       0.86720000
H       -2.20910000       0.81070000      -1.29060000
H       -4.04910000      -0.56380000      -0.32910000
H       -4.04020000      -0.43930000      -2.10480000
H       -4.22570000      -2.83510000      -1.25540000
H       -2.82910000      -2.53880000      -2.32450000
H       -0.53670000      -3.68190000       0.69440000
