23
Properties=species:S:1:pos:R:3 gdb_80562=T pbc="F F F"
C       -0.14490000       1.54250000       0.01160000
C        0.04140000       0.04330000       0.07890000
C        1.32840000      -0.68850000      -0.29500000
C        2.64300000       0.08570000      -0.34770000
C        3.13790000       0.15530000       1.12330000
C        4.04560000       1.34330000       1.43480000
C        1.84800000       0.08030000       1.98320000
C        0.83570000      -0.69370000       1.13100000
O        0.31300000      -1.88320000       1.65610000
H        0.74680000       2.09550000       0.31740000
H       -0.38880000       1.85850000      -1.00900000
H       -0.96660000       1.86530000       0.66120000
H       -0.84190000      -0.51690000      -0.22210000
H        1.21950000      -1.58320000      -0.89760000
H        3.37350000      -0.41410000      -0.99060000
H        2.50940000       1.09410000      -0.75970000
H        3.69800000      -0.76950000       1.31320000
H        3.52320000       2.29270000       1.26510000
H        4.37830000       1.33050000       2.47830000
H        4.93960000       1.33970000       0.80160000
H        2.01610000      -0.45490000       2.92170000
H        1.49280000       1.08540000       2.24420000
H       -0.41740000      -1.65370000       2.24070000
