16
Properties=species:S:1:pos:R:3 gdb_50994=T pbc="F F F"
O        2.35030000       0.74050000      -1.90390000
C        2.12220000       1.82670000      -1.47070000
O        1.41370000       2.01870000      -0.33000000
C        1.16830000       3.35660000       0.06260000
C       -0.03430000       3.97510000      -0.63630000
C       -1.28820000       3.28590000      -0.32430000
N       -2.28170000       2.75420000      -0.07170000
C        1.42590000       3.64110000       1.50730000
C        2.34480000       4.21610000       0.45010000
H        2.46200000       2.77420000      -1.92880000
H       -0.12910000       5.02380000      -0.33590000
H        0.10980000       3.97000000      -1.72320000
H        0.74300000       4.30460000       2.02510000
H        1.79920000       2.81490000       2.10000000
H        3.33200000       3.77870000       0.35740000
H        2.30100000       5.27840000       0.23620000
