21
Properties=species:S:1:pos:R:3 gdb_98968=T pbc="F F F"
C        0.14790000       1.63900000       0.07220000
C       -0.09260000       0.13220000       0.04750000
C       -1.55840000      -0.25110000      -0.01230000
N       -2.47870000       0.61900000      -0.03830000
N       -1.73830000      -1.65650000      -0.03380000
C       -2.93260000      -2.34810000      -0.08640000
O       -4.01860000      -1.80240000      -0.12210000
C       -2.76700000      -3.86630000      -0.09580000
C       -4.10360000      -4.60150000      -0.15400000
H        1.22010000       1.85180000       0.11530000
H       -0.26960000       2.11330000      -0.81850000
H       -0.33670000       2.09520000       0.93810000
H        0.41820000      -0.32210000      -0.81390000
H        0.35150000      -0.34010000       0.93590000
H       -3.39470000       0.17100000      -0.07780000
H       -0.89740000      -2.21330000      -0.00750000
H       -2.13440000      -4.13840000      -0.95130000
H       -2.20070000      -4.15650000       0.79930000
H       -3.94440000      -5.68320000      -0.15940000
H       -4.72660000      -4.34520000       0.70600000
H       -4.66020000      -4.32650000      -1.05280000
