14
Properties=species:S:1:pos:R:3 gdb_53868=T pbc="F F F"
N       -0.05360000       1.27740000       0.00750000
C        0.06820000      -0.07060000       0.00010000
O        1.10130000      -0.69900000      -0.01260000
C       -1.32960000      -0.73390000       0.01060000
O       -2.36220000      -0.10460000       0.02350000
O       -1.23900000      -2.05940000       0.00270000
C       -2.51070000      -2.75120000       0.01130000
C       -2.26640000      -4.18090000       0.00120000
C       -2.10230000      -5.36970000      -0.00690000
H        0.77380000       1.84890000       0.00290000
H       -0.97080000       1.69180000       0.01890000
H       -3.07330000      -2.44560000       0.89990000
H       -3.09050000      -2.43600000      -0.86270000
H       -1.94990000      -6.42090000      -0.01420000
