17
Properties=species:S:1:pos:R:3 gdb_115471=T pbc="F F F"
O        0.45870000       1.17520000       0.09450000
C        0.16050000      -0.19430000      -0.04240000
C       -1.35600000      -0.43900000      -0.04080000
C       -1.74300000      -1.95040000      -0.07280000
N       -2.16580000      -2.16280000       1.31390000
C       -2.32500000      -0.92910000       1.88540000
C       -2.96240000      -0.80110000       3.22300000
O       -3.43700000      -1.74320000       3.81000000
N       -1.90510000       0.09240000       1.22730000
H       -0.08130000       1.49070000       0.83040000
H        0.58980000      -0.52650000      -0.99450000
H        0.61770000      -0.79880000       0.75990000
H       -1.78860000       0.11980000      -0.87650000
H       -2.55650000      -2.15280000      -0.78030000
H       -0.89570000      -2.59380000      -0.33400000
H       -2.76580000      -2.92260000       1.59470000
H       -2.97900000       0.23270000       3.61590000
