20
Properties=species:S:1:pos:R:3 gdb_112095=T pbc="F F F"
C       -0.03110000       1.64680000       0.26620000
C        0.02610000       0.12540000       0.11430000
C       -1.35250000      -0.53720000      -0.14280000
C       -1.96540000      -0.13830000      -1.45570000
C       -2.31010000      -0.99970000      -2.40620000
C       -2.15030000      -2.48070000      -2.27150000
N       -1.60220000      -2.85660000      -0.98280000
C       -1.21820000      -2.04970000       0.04780000
O       -0.77750000      -2.51750000       1.08410000
H        0.95960000       2.04620000       0.50430000
H       -0.37050000       2.14400000      -0.64830000
H       -0.70910000       1.93840000       1.07640000
H        0.70570000      -0.14310000      -0.70420000
H        0.42860000      -0.32710000       1.02460000
H       -2.01190000      -0.20660000       0.67400000
H       -2.12280000       0.92490000      -1.61690000
H       -2.73990000      -0.65700000      -3.34270000
H       -3.12670000      -2.96930000      -2.41750000
H       -1.50510000      -2.85810000      -3.08110000
H       -1.48470000      -3.84020000      -0.78570000
