15
Properties=species:S:1:pos:R:3 gdb_22330=T pbc="F F F"
N        0.00270000       1.39290000       0.00840000
C       -0.03430000       0.04470000       0.00330000
C       -1.13650000      -0.76680000       0.00210000
C       -0.76540000      -2.17210000      -0.00380000
O       -1.49750000      -3.14040000      -0.00590000
C        0.77350000      -2.23920000      -0.00700000
C        1.19340000      -0.79040000      -0.00180000
N        2.43230000      -0.47450000      -0.00220000
O        2.65840000       0.91490000       0.00300000
H        0.88820000       1.86700000       0.00850000
H       -0.85030000       1.92360000       0.01120000
H       -2.16560000      -0.43120000       0.00510000
H        1.13720000      -2.78110000       0.87100000
H        1.13340000      -2.77340000      -0.89130000
H        3.61940000       0.96680000       0.00190000
