17
Properties=species:S:1:pos:R:3 gdb_50680=T pbc="F F F"
O       -0.63930000       0.95050000       1.00860000
C        0.17470000       0.86250000       0.12780000
C        1.38070000       1.78810000      -0.00520000
N        2.58060000       1.01300000      -0.29860000
C        3.49960000       1.77940000      -1.16460000
C        2.78220000       3.11390000      -1.43220000
C        1.28850000       2.76870000      -1.20820000
C        0.69900000       2.15780000      -2.40360000
N        0.24390000       1.69710000      -3.36100000
H        0.13090000       0.07660000      -0.65490000
H        1.43300000       2.39170000       0.91320000
H        3.02300000       0.65810000       0.53710000
H        4.47380000       1.93770000      -0.68990000
H        3.67540000       1.23450000      -2.09960000
H        3.07080000       3.86690000      -0.69320000
H        2.97520000       3.51800000      -2.42730000
H        0.69120000       3.64510000      -0.94540000
