20
Properties=species:S:1:pos:R:3 gdb_76795=T pbc="F F F"
C       -0.77110000       1.18680000      -0.12780000
C       -0.02550000      -0.13950000      -0.10230000
C        1.28680000      -0.28200000      -0.92650000
O        1.90290000       0.98580000      -1.09690000
C        1.93730000      -1.05610000       0.27410000
O        3.24930000      -0.69050000       0.60570000
C        0.77860000      -0.55150000       1.14550000
C        0.89660000       0.18030000       2.42510000
N        0.31650000      -1.18000000       2.37580000
H       -0.09350000       2.02090000       0.06600000
H       -1.24250000       1.35470000      -1.10150000
H       -1.56440000       1.20070000       0.62820000
H       -0.70140000      -0.95650000      -0.38450000
H        1.20630000      -0.81170000      -1.88270000
H        2.73070000       0.83930000      -1.56710000
H        1.92280000      -2.14230000       0.14850000
H        3.25560000       0.27550000       0.60960000
H        1.86300000       0.23960000       2.91830000
H        0.23820000       1.02750000       2.59880000
H       -0.69890000      -1.12240000       2.43390000
