22
Properties=species:S:1:pos:R:3 gdb_56200=T pbc="F F F"
N       -0.07510000       1.35870000       0.18610000
C        0.06270000       0.02970000      -0.10730000
O        1.14130000      -0.46490000      -0.37100000
C       -1.23940000      -0.76940000      -0.08210000
C       -1.00970000      -2.26080000       0.17790000
C       -2.27650000      -3.09230000       0.03740000
C       -2.91980000      -3.26970000      -1.37120000
C       -3.22260000      -4.74760000      -1.00480000
C       -2.16830000      -4.64130000       0.12930000
H        0.72920000       1.95330000       0.06930000
H       -0.97620000       1.78790000       0.30190000
H       -1.92880000      -0.34310000       0.65740000
H       -1.72030000      -0.63390000      -1.06110000
H       -0.24400000      -2.61780000      -0.51910000
H       -0.58830000      -2.39280000       1.18280000
H       -3.03870000      -2.73670000       0.74290000
H       -3.76210000      -2.62680000      -1.63960000
H       -2.16330000      -3.19820000      -2.16060000
H       -4.23480000      -4.86590000      -0.60710000
H       -3.06500000      -5.50440000      -1.77680000
H       -1.18320000      -4.98590000      -0.20240000
H       -2.39520000      -5.11350000       1.08860000
