15
Properties=species:S:1:pos:R:3 gdb_44708=T pbc="F F F"
O       -0.02120000      -0.04090000      -0.10450000
C       -0.03230000       1.14480000       0.03430000
C       -1.12500000       2.18720000       0.33940000
C        0.00100000       3.23940000       0.51270000
O        0.29400000       3.50980000       1.88190000
C        1.46240000       2.93180000       2.30100000
O        1.86510000       3.05690000       3.41700000
C        2.10860000       2.15770000       1.14890000
C        1.08190000       2.22140000       0.02520000
H       -1.77350000       2.37080000      -0.52330000
H       -1.74570000       2.00160000       1.21900000
H       -0.11450000       4.18560000      -0.01580000
H        3.05430000       2.64300000       0.89140000
H        2.34200000       1.14270000       1.47880000
H        1.50120000       2.39260000      -0.96770000
