21
Properties=species:S:1:pos:R:3 gdb_13811=T pbc="F F F"
C        2.00140000       0.84340000      -0.51230000
C        1.53920000      -0.59890000      -0.73130000
C        2.59760000      -1.41140000      -1.48210000
N        1.32090000      -1.22100000       0.58400000
C        0.09400000      -0.90870000       1.30470000
C        0.32300000      -2.27540000       0.75160000
C       -0.54290000      -2.84190000      -0.36810000
O       -1.36310000      -1.90800000      -1.05280000
H        2.91940000       0.86370000       0.08410000
H        2.19790000       1.33450000      -1.47040000
H        1.24110000       1.42700000       0.01630000
H        0.61300000      -0.58620000      -1.32410000
H        3.53390000      -1.43230000      -0.91520000
H        2.27560000      -2.44590000      -1.63540000
H        2.79490000      -0.97210000      -2.46510000
H        0.19180000      -0.71230000       2.36990000
H       -0.64310000      -0.28880000       0.79550000
H        0.64630000      -3.05600000       1.44140000
H        0.08840000      -3.29520000      -1.14010000
H       -1.14800000      -3.65560000       0.06160000
H       -2.01810000      -1.58090000      -0.42790000
