11
Properties=species:S:1:pos:R:3 gdb_130105=T pbc="F F F"
N       -0.04270000       1.27930000       0.17050000
C       -0.00390000      -0.07380000       0.07320000
N       -1.12000000      -0.81930000       0.04820000
N       -0.54630000      -2.05530000       0.00760000
N       -0.94430000      -3.32100000      -0.03990000
N        0.06820000      -4.06540000      -0.07370000
O        1.28270000      -3.20150000      -0.04740000
C        0.80730000      -1.97480000       0.00200000
N        1.21880000      -0.73630000       0.04190000
H        0.79600000       1.76350000      -0.10490000
H       -0.91580000       1.72550000      -0.05960000
