16
Properties=species:S:1:pos:R:3 gdb_37205=T pbc="F F F"
C       -0.00330000       1.52380000      -0.01730000
N        1.50990000       1.54990000       0.01500000
C        1.54460000       0.06470000      -0.04790000
C        1.50020000      -0.69000000       1.30020000
O        0.03440000      -0.73590000       1.25890000
C        0.03750000      -0.03050000       0.01060000
C        0.04430000      -0.88920000      -1.26830000
O        0.68000000      -0.08760000      -2.26330000
C        1.53330000      -0.77250000      -1.34040000
H       -0.44870000       1.98290000       0.86900000
H       -0.44910000       1.94400000      -0.92290000
H        1.91350000       1.99360000      -0.80280000
H        1.93150000      -1.69670000       1.32860000
H        1.86260000      -0.09860000       2.14600000
H       -0.63140000      -1.66810000      -1.60430000
H        2.28560000      -1.42680000      -1.76850000
