20
Properties=species:S:1:pos:R:3 gdb_543=T pbc="F F F"
C        0.02490000       1.58520000       0.01030000
C        0.00730000       0.05450000       0.00230000
C       -1.40860000      -0.53250000       0.01260000
C       -1.43730000      -2.06460000       0.00470000
C       -2.85310000      -2.65160000       0.01500000
C       -2.87080000      -4.18240000       0.00700000
H        1.04750000       1.97570000       0.00270000
H       -0.49240000       1.99140000      -0.86630000
H       -0.47550000       1.98190000       0.90090000
H        0.54440000      -0.31430000      -0.88150000
H        0.56110000      -0.32370000       0.87170000
H       -1.94680000      -0.16380000       0.89700000
H       -1.96350000      -0.15440000      -0.85730000
H       -0.89910000      -2.43340000      -0.87970000
H       -0.88240000      -2.44270000       0.87470000
H       -3.39030000      -2.28280000       0.89880000
H       -3.40700000      -2.27340000      -0.85430000
H       -3.89340000      -4.57290000       0.01470000
H       -2.37040000      -4.57910000      -0.88370000
H       -2.35340000      -4.58860000       0.88350000
