17
Properties=species:S:1:pos:R:3 gdb_57224=T pbc="F F F"
C       -0.02410000       1.54410000      -0.00000000
C       -0.00790000      -0.00930000      -0.00030000
C        0.74990000      -0.52790000       1.25280000
C       -1.38990000      -0.51370000       0.01920000
C       -2.52300000      -0.91010000       0.06370000
C        0.66860000      -0.48950000      -1.21240000
C        1.25040000      -0.87050000      -2.20230000
C        1.90260000      -1.30030000      -3.31680000
C        2.48220000      -1.68100000      -4.30530000
H        1.00030000       1.92560000      -0.01450000
H       -0.55380000       1.92400000      -0.87570000
H       -0.52830000       1.90540000       0.90020000
H        0.24820000      -0.17370000       2.15730000
H        0.76970000      -1.61930000       1.26670000
H        1.77800000      -0.15650000       1.24440000
H       -3.52260000      -1.26790000       0.08930000
H        2.99100000      -2.01620000      -5.17470000
