19
Properties=species:S:1:pos:R:3 gdb_104638=T pbc="F F F"
C        0.04690000       0.92450000      -0.45690000
O       -0.29010000      -0.42390000      -0.17230000
C       -1.66240000      -0.65570000       0.15860000
C       -2.55470000      -0.68470000      -1.12940000
C       -2.22060000      -2.19980000      -1.26810000
O       -1.15650000      -2.48320000      -2.14560000
C       -1.82770000      -2.20080000       0.23720000
C       -2.10850000       0.14440000       1.29070000
C       -2.49870000       0.79510000       2.22390000
H        1.11040000       0.93100000      -0.70480000
H       -0.52030000       1.32080000      -1.31030000
H       -0.12820000       1.56990000       0.41180000
H       -3.60600000      -0.50370000      -0.89430000
H       -2.24670000      -0.03900000      -1.95460000
H       -3.04360000      -2.85440000      -1.56090000
H       -0.40900000      -1.94560000      -1.85320000
H       -0.92550000      -2.74920000       0.51550000
H       -2.65640000      -2.48060000       0.89050000
H       -2.84220000       1.36590000       3.05130000
