15
Properties=species:S:1:pos:R:3 gdb_124211=T pbc="F F F"
C       -0.01080000       1.47380000      -0.10250000
C       -0.01470000      -0.00980000       0.19840000
N       -0.04870000      -0.57060000       1.33620000
N        0.02540000      -0.77650000      -0.97120000
C        0.03610000      -2.13150000      -1.13070000
N        0.07680000      -2.71920000      -2.30160000
C        0.06980000      -4.03450000      -1.92910000
N        0.02880000      -4.26940000      -0.64740000
O        0.00550000      -2.96170000      -0.09370000
H        0.89110000       1.75890000      -0.65580000
H       -0.87680000       1.75200000      -0.71340000
H       -0.04320000       2.04690000       0.82460000
H       -0.07490000       0.12850000       2.07540000
H        0.05210000      -0.29010000      -1.85350000
H        0.09620000      -4.84910000      -2.63890000
