11
Properties=species:S:1:pos:R:3 gdb_33285=T pbc="F F F"
N        0.06230000      -3.70340000      -0.03640000
C        0.03840000      -2.54270000      -0.01880000
C        0.01120000      -1.17770000       0.00650000
C       -0.00810000       0.02850000       0.03400000
C       -0.03760000       1.46690000       0.06960000
C        0.54690000       2.20100000       1.22820000
O        1.22780000       2.13650000      -0.01150000
C       -1.12060000       2.08990000      -0.67280000
N       -1.99010000       2.58150000      -1.25230000
H        0.12090000       3.16740000       1.48900000
H        0.97460000       1.61520000       2.03870000
