14
Properties=species:S:1:pos:R:3 gdb_49454=T pbc="F F F"
O        0.03140000       0.02390000      -0.46430000
C        0.02040000       1.19730000      -0.17760000
N        1.09300000       1.87910000       0.34620000
C        2.52270000       1.51970000       0.17800000
C        2.86890000       2.11000000      -1.17940000
C        2.18550000       3.27190000      -1.20950000
C        1.47370000       3.30190000       0.13310000
C        2.74600000       2.87100000       1.00920000
O        3.46330000       3.31730000       1.83010000
H       -0.88210000       1.83700000      -0.23810000
H        2.85640000       0.53310000       0.48030000
H        3.59300000       1.71560000      -1.87640000
H        2.20940000       4.06980000      -1.93670000
H        0.77360000       4.08800000       0.40110000
