16
Properties=species:S:1:pos:R:3 gdb_98716=T pbc="F F F"
C       -0.30640000       1.37290000       0.29000000
O       -0.22990000      -0.05780000       0.38740000
C        0.92360000      -0.53440000       0.88630000
O        1.85420000       0.15120000       1.22940000
C        0.89100000      -2.02520000       0.95600000
C        2.20960000      -2.74560000       1.01900000
C        1.34580000      -2.70940000       2.25320000
C        1.72980000      -1.95120000       3.41250000
N        2.01860000      -1.38970000       4.38110000
H        0.47680000       1.75410000      -0.36970000
H       -1.29240000       1.58810000      -0.12060000
H       -0.19050000       1.82940000       1.27570000
H        0.05460000      -2.49570000       0.45540000
H        2.30510000      -3.69340000       0.50380000
H        3.08680000      -2.11000000       1.02350000
H        0.80150000      -3.61580000       2.49660000
