20
Properties=species:S:1:pos:R:3 gdb_32912=T pbc="F F F"
C        0.20630000       1.48410000       0.13380000
C        0.20130000      -0.04470000       0.07740000
C        0.53060000      -0.58120000      -1.32930000
C        0.54150000      -2.06780000      -1.40770000
N       -0.25580000      -2.85270000      -2.06020000
C        0.19810000      -4.13440000      -1.76660000
C        1.26470000      -4.06350000      -0.93530000
C        2.16160000      -5.05100000      -0.28630000
O        1.49670000      -2.73080000      -0.69550000
H        1.18630000       1.88840000      -0.14350000
H       -0.53320000       1.90900000      -0.55400000
H       -0.02960000       1.84340000       1.14000000
H        0.92820000      -0.44840000       0.79120000
H       -0.77960000      -0.42780000       0.38250000
H       -0.20740000      -0.22770000      -2.05450000
H        1.50880000      -0.19320000      -1.64230000
H       -0.27620000      -5.01280000      -2.17550000
H        3.20470000      -4.91090000      -0.59180000
H        2.12610000      -4.97210000       0.80620000
H        1.85740000      -6.06250000      -0.56520000
