16
Properties=species:S:1:pos:R:3 gdb_80158=T pbc="F F F"
C       -0.07250000       1.56470000      -0.04790000
C        0.05060000       0.05970000       0.02080000
C        1.32900000      -0.70350000      -0.19320000
N        2.56870000       0.01790000      -0.08810000
C        2.83240000       0.53730000       1.15650000
O        3.74160000       1.26430000       1.47260000
C        1.68250000       0.01860000       2.06980000
O        1.64860000       0.15690000       3.26240000
C        0.71250000      -0.69900000       1.18890000
H        0.84930000       2.07670000       0.23700000
H       -0.32720000       1.87670000      -1.06620000
H       -0.86620000       1.91640000       0.61800000
H       -0.83040000      -0.47010000      -0.33430000
H        1.34960000      -1.60130000      -0.80100000
H        3.05000000       0.38050000      -0.89730000
H        0.19080000      -1.55260000       1.60150000
