18
Properties=species:S:1:pos:R:3 gdb_24170=T pbc="F F F"
C        0.02430000       1.45290000       0.39630000
C       -0.04760000      -0.03590000       0.14240000
C       -1.28230000      -0.66490000      -0.34060000
O       -0.18200000      -0.43700000      -1.22250000
N        1.35280000       1.99220000       0.17990000
C        2.15100000       2.57060000       1.13900000
C        3.33400000       2.94530000       0.54710000
C        3.25190000       2.57930000      -0.82510000
C        2.02260000       1.99510000      -1.02220000
H       -0.69820000       1.95810000      -0.25570000
H       -0.25620000       1.66280000       1.43310000
H        0.65740000      -0.63760000       0.71690000
H       -1.48490000      -1.70740000      -0.10190000
H       -2.16360000      -0.05140000      -0.52460000
H        1.80020000       2.66910000       2.15450000
H        4.16140000       3.43080000       1.04140000
H        4.00730000       2.72770000      -1.58150000
H        1.56360000       1.56860000      -1.89940000
