19
Properties=species:S:1:pos:R:3 gdb_104020=T pbc="F F F"
O       -0.13600000       1.42950000       0.00750000
C       -0.01060000       0.00710000       0.02000000
C       -1.43000000      -0.54170000      -0.02360000
O       -2.16410000      -0.03920000       1.07790000
C       -2.14610000      -0.33830000      -1.40860000
C       -2.37970000      -1.82690000      -1.72260000
C       -2.93020000      -2.40940000      -0.40150000
C       -1.47440000      -2.08860000      -0.01510000
O       -1.07120000      -2.40660000      -1.38260000
H        0.72580000       1.81610000       0.18460000
H        0.56240000      -0.36150000      -0.83920000
H        0.47830000      -0.33180000       0.94580000
H       -1.91730000       0.89180000       1.15160000
H       -3.06890000       0.23460000      -1.29350000
H       -1.51200000       0.14330000      -2.15510000
H       -2.75110000      -2.11400000      -2.70620000
H       -3.73850000      -1.89250000       0.11730000
H       -3.10090000      -3.48410000      -0.46800000
H       -0.91660000      -2.61500000       0.75960000
