21
Properties=species:S:1:pos:R:3 gdb_39645=T pbc="F F F"
C       -0.22690000       1.44470000      -0.15680000
C        1.32430000       1.45820000      -0.11260000
C        1.28060000       0.08560000       0.62560000
C       -0.18120000      -0.08340000       0.11030000
C        2.29790000      -0.96350000       0.23970000
C        3.74300000      -1.03380000       0.82040000
C        3.20290000      -1.56640000       2.16920000
C        2.50090000      -2.30630000       1.00540000
O        3.82050000      -2.43490000       0.34240000
H       -0.66090000       1.99030000       0.68610000
H       -0.71170000       1.78530000      -1.07440000
H        1.75710000       1.35330000      -1.11310000
H        1.81860000       2.29190000       0.39240000
H        1.26680000       0.25530000       1.70630000
H       -0.91680000      -0.50910000       0.79740000
H       -0.20580000      -0.65670000      -0.82240000
H        2.30590000      -1.12870000      -0.84290000
H        4.60150000      -0.39020000       0.62350000
H        3.91070000      -2.17540000       2.73230000
H        2.61800000      -0.90250000       2.80850000
H        1.86590000      -3.19290000       1.03090000
