21
Properties=species:S:1:pos:R:3 gdb_81456=T pbc="F F F"
C       -0.10480000       1.64450000      -0.00320000
C        0.03860000       0.12590000       0.02280000
C        0.88770000      -0.68300000      -0.98080000
C        2.31270000      -0.12820000      -1.17540000
C        3.06560000      -0.03360000       0.15710000
C        2.81250000       1.01990000       1.21080000
C        2.24940000      -0.36910000       1.38650000
C        0.82410000      -0.75780000       1.04150000
O        0.92710000      -1.77180000      -0.01730000
H        0.78090000       2.16140000      -0.37660000
H       -0.93600000       1.92220000      -0.66000000
H       -0.33260000       2.04210000       0.99170000
H       -0.96370000      -0.31250000       0.00350000
H        0.43560000      -0.98670000      -1.93000000
H        2.85180000      -0.82500000      -1.82550000
H        2.27730000       0.82960000      -1.70990000
H        4.08070000      -0.41490000       0.12510000
H        3.65650000       1.28070000       1.84150000
H        2.15380000       1.85170000       1.01300000
H        2.70380000      -0.99840000       2.14550000
H        0.26930000      -1.13060000       1.90650000
