20
Properties=species:S:1:pos:R:3 gdb_117454=T pbc="F F F"
C       -0.08170000       1.31170000       0.51800000
C        0.01930000       0.07170000      -0.37310000
N       -1.25520000      -0.61020000      -0.54700000
C       -1.55770000      -1.78480000       0.07240000
O       -0.76920000      -2.39430000       0.77430000
C       -2.98580000      -2.28710000      -0.15950000
C       -3.03590000      -3.81990000      -0.20430000
C       -4.43090000      -4.34950000       0.01640000
O       -5.00080000      -5.13200000      -0.69880000
H        0.89590000       1.79540000       0.60930000
H       -0.78090000       2.04620000       0.10330000
H       -0.42600000       1.04040000       1.52000000
H        0.41330000       0.34320000      -1.35960000
H        0.69630000      -0.66320000       0.06670000
H       -1.97240000      -0.15280000      -1.08630000
H       -3.58970000      -1.92420000       0.68420000
H       -3.41950000      -1.85180000      -1.06640000
H       -2.64710000      -4.21460000      -1.14660000
H       -2.39410000      -4.18470000       0.60940000
H       -4.92450000      -3.95130000       0.93640000
