15
Properties=species:S:1:pos:R:3 gdb_21301=T pbc="F F F"
C       -0.00440000       1.37800000      -0.03290000
O       -0.00750000      -0.05190000      -0.02410000
C       -1.21220000      -0.62920000       0.00610000
N       -2.33890000       0.04380000       0.02680000
O       -3.33550000      -0.93630000       0.05480000
C       -2.75060000      -2.14640000       0.04960000
C       -1.39900000      -2.04900000       0.01900000
C       -0.34370000      -3.10560000       0.00210000
H        1.04460000       1.67410000      -0.05780000
H       -0.53040000       1.76030000      -0.91310000
H       -0.49110000       1.77100000       0.86500000
H       -3.42270000      -2.99110000       0.06990000
H        0.27940000      -3.03100000      -0.89560000
H        0.32540000      -3.01280000       0.86410000
H       -0.78760000      -4.10400000       0.02390000
