17
Properties=species:S:1:pos:R:3 gdb_2445=T pbc="F F F"
C       -0.04330000       1.56510000       0.10920000
C        1.48380000       1.41010000      -0.01950000
C        2.12720000       1.14360000       1.34850000
C        1.64870000      -0.23600000       1.87090000
C        0.23690000      -0.62240000       1.35840000
C        0.00710000       0.03040000      -0.01180000
O        1.28660000       0.13720000      -0.70880000
H       -0.44760000       2.00290000       1.02530000
H       -0.48860000       2.03680000      -0.76840000
H        2.03770000       2.12580000      -0.63270000
H        3.21920000       1.14510000       1.26950000
H        1.85910000       1.95680000       2.03400000
H        2.34930000      -0.98790000       1.50060000
H        1.69340000      -0.27770000       2.96300000
H        0.16100000      -1.71230000       1.28550000
H       -0.55230000      -0.29620000       2.04660000
H       -0.74790000      -0.47690000      -0.61810000
