15
Properties=species:S:1:pos:R:3 gdb_44827=T pbc="F F F"
O       -0.54080000       0.08650000      -0.27290000
C       -0.28790000       1.22480000      -0.00840000
C       -1.10600000       2.52910000       0.07410000
N        0.17080000       3.31840000      -0.08760000
C        0.95000000       3.01350000       1.10570000
C        0.98760000       2.01830000      -0.00590000
C        2.21380000       1.72350000      -0.83930000
C        3.29300000       1.11440000      -0.06070000
N        4.14110000       0.64650000       0.56850000
H       -1.75940000       2.64710000      -0.79360000
H       -1.65790000       2.75260000       0.99050000
H        1.84050000       3.62450000       1.22270000
H        0.43820000       2.77200000       2.03470000
H        1.94750000       1.05240000      -1.66340000
H        2.57760000       2.65750000      -1.28210000
