16
Properties=species:S:1:pos:R:3 gdb_26002=T pbc="F F F"
C       -0.21900000       1.56130000       0.10670000
C       -0.05830000       0.07700000       0.38280000
O        0.56120000      -0.32770000       1.34000000
C       -0.72330000      -0.85040000      -0.62540000
C       -0.72300000      -2.30850000      -0.30050000
C       -0.11910000      -3.01560000       0.68650000
O       -0.44510000      -4.33600000       0.52120000
C       -1.23680000      -4.35210000      -0.57050000
N       -1.44290000      -3.19510000      -1.10550000
H        0.39980000       2.13360000       0.79840000
H        0.05210000       1.80160000      -0.92670000
H       -1.26850000       1.85060000       0.23580000
H       -1.75440000      -0.51040000      -0.79080000
H       -0.22970000      -0.68300000      -1.59480000
H        0.51540000      -2.76430000       1.51420000
H       -1.61550000      -5.31210000      -0.88450000
