18
Properties=species:S:1:pos:R:3 gdb_69749=T pbc="F F F"
C        0.00030000       1.57660000       0.03860000
C        0.00990000       0.07640000       0.01080000
C       -0.91090000      -0.79550000       0.82620000
C        0.58150000      -0.95970000       0.97900000
N        1.25400000      -1.71570000      -0.10650000
C        0.51020000      -2.88120000      -0.68680000
C       -0.10910000      -1.94120000      -1.74890000
O       -0.84290000      -2.07830000      -2.68030000
C        0.66280000      -0.76070000      -1.11230000
H        0.97990000       1.98810000      -0.22850000
H       -0.73640000       1.98090000      -0.66540000
H       -0.25990000       1.94710000       1.03540000
H       -1.37790000      -0.28210000       1.66160000
H       -1.54770000      -1.55170000       0.37690000
H        1.08250000      -0.83030000       1.93220000
H        1.18610000      -3.63120000      -1.11100000
H       -0.19990000      -3.38200000      -0.02110000
H        1.35900000      -0.21870000      -1.75950000
