18
Properties=species:S:1:pos:R:3 gdb_55900=T pbc="F F F"
C        0.77500000       0.48630000      -0.42040000
C       -0.35250000       0.46030000       0.58740000
O       -0.35330000       1.13240000       1.59120000
C       -1.56350000      -0.43320000       0.27700000
N       -1.19190000      -1.60790000      -0.50470000
C       -1.07440000      -2.87960000       0.16340000
C       -2.18070000      -2.64510000      -0.83290000
C       -3.57760000      -2.60380000      -0.32270000
O       -4.51680000      -3.04850000      -0.93440000
H        1.49440000       1.25640000      -0.14040000
H        1.26660000      -0.49100000      -0.45770000
H        0.38780000       0.66880000      -1.42810000
H       -2.05600000      -0.64610000       1.23480000
H       -2.25400000       0.17600000      -0.32240000
H       -0.23930000      -3.51280000      -0.12300000
H       -1.35860000      -2.93640000       1.21450000
H       -2.09250000      -3.05720000      -1.83470000
H       -3.70800000      -2.14340000       0.68110000
