21
Properties=species:S:1:pos:R:3 gdb_98300=T pbc="F F F"
C       -0.05250000       1.46520000      -0.13800000
N       -0.00710000       0.02690000       0.06950000
C       -1.20760000      -0.65710000       0.16260000
O       -2.27870000      -0.06990000       0.21600000
N       -1.10080000      -2.03560000       0.22920000
C        0.17870000      -2.71340000       0.27300000
C       -2.33000000      -2.78870000       0.18460000
C       -2.42480000      -4.15280000      -0.44200000
C       -2.59270000      -3.98490000       1.05780000
H        0.93850000       1.88350000       0.05620000
H       -0.36470000       1.74290000      -1.15360000
H       -0.76910000       1.89900000       0.55970000
H        0.77220000      -0.45120000      -0.35140000
H        0.87240000      -2.17660000       0.92620000
H        0.05600000      -3.71390000       0.69250000
H        0.64330000      -2.82810000      -0.71870000
H       -3.15640000      -2.10960000       0.02960000
H       -3.29450000      -4.37820000      -1.04950000
H       -1.51420000      -4.63240000      -0.78510000
H       -1.79500000      -4.35620000       1.69260000
H       -3.58080000      -4.08730000       1.49260000
