23
Properties=species:S:1:pos:R:3 gdb_103095=T pbc="F F F"
C        0.22690000       1.48740000      -0.24240000
C       -0.15810000       0.04840000       0.12700000
C        0.65320000      -0.53870000       1.27440000
C        0.53770000       0.21240000       2.59030000
C        0.84910000      -2.03200000       1.37210000
C        0.25620000      -3.04120000       0.41430000
C        2.03300000      -1.14270000       0.97540000
C        2.56510000      -1.17540000      -0.35400000
C        3.02740000      -1.20470000      -1.46580000
H        1.28440000       1.54700000      -0.51730000
H       -0.36220000       1.83360000      -1.09730000
H        0.04950000       2.18560000       0.58110000
H       -1.22150000       0.01100000       0.40050000
H       -0.04620000      -0.57660000      -0.76210000
H       -0.50850000       0.26500000       2.91530000
H        1.10520000      -0.28620000       3.38240000
H        0.91360000       1.23730000       2.51020000
H        0.91910000      -2.40090000       2.39310000
H        0.36280000      -2.73700000      -0.62860000
H        0.76280000      -4.00620000       0.52160000
H       -0.80840000      -3.19960000       0.61890000
H        2.78490000      -0.98890000       1.74530000
H        3.43770000      -1.22570000      -2.44460000
