21
Properties=species:S:1:pos:R:3 gdb_37354=T pbc="F F F"
C        0.00040000       1.49910000       0.24510000
C        1.31450000       0.78210000       0.02870000
C        0.01270000       0.00090000       0.03720000
C       -0.09470000      -0.63580000      -1.36600000
C        1.39460000      -0.84590000      -1.72380000
C        1.91330000       0.56910000      -1.37920000
C        1.38940000       1.51700000      -2.46900000
O       -0.02890000       1.51690000      -2.59360000
C       -0.69510000       0.26620000      -2.45530000
H       -0.18800000       1.82420000       1.26450000
H       -0.39870000       2.15590000      -0.51340000
H        2.00330000       0.72210000       0.86450000
H       -0.25030000      -0.63020000       0.87930000
H       -0.67190000      -1.56480000      -1.33930000
H        1.85180000      -1.60080000      -1.07650000
H        1.56240000      -1.13690000      -2.76780000
H        3.00480000       0.64150000      -1.36340000
H        1.65900000       2.55670000      -2.25590000
H        1.85530000       1.23920000      -3.42970000
H       -0.67840000      -0.28120000      -3.41310000
H       -1.73730000       0.51870000      -2.23360000
