17
Properties=species:S:1:pos:R:3 gdb_111672=T pbc="F F F"
O       -0.03360000       1.20340000       0.71120000
C        0.03580000       0.04060000      -0.08730000
C       -1.31970000      -0.62930000      -0.19070000
C       -1.56560000      -2.09700000      -0.18030000
C       -0.47670000      -3.06830000       0.24710000
O       -0.13900000      -2.67000000       1.58460000
C       -0.90920000      -1.60800000       1.97270000
N       -0.75150000      -0.94520000       3.03680000
N       -1.90730000      -1.30160000       1.01030000
H       -0.28370000       0.92280000       1.60350000
H        0.34650000       0.36340000      -1.08690000
H        0.80050000      -0.66000000       0.27790000
H       -2.06430000      -0.01650000      -0.69280000
H       -2.40050000      -2.50080000      -0.74450000
H       -0.85650000      -4.09460000       0.26700000
H        0.42950000      -3.03960000      -0.36570000
H        0.02550000      -1.32330000       3.57740000
