20
Properties=species:S:1:pos:R:3 gdb_65229=T pbc="F F F"
C       -0.15460000       1.47800000       0.26030000
C        0.01060000      -0.00590000      -0.00580000
C        1.35370000      -0.53100000      -0.47830000
C        0.86290000      -0.83890000       0.91470000
N       -1.15260000      -0.64920000      -0.53310000
C       -1.81200000      -0.52320000      -1.84110000
C       -2.84950000      -1.56810000      -1.34720000
C       -2.03760000      -1.58260000      -0.03150000
O       -2.09890000      -2.16300000       1.02120000
H        0.77560000       1.90810000       0.64250000
H       -0.41920000       2.01990000      -0.65490000
H       -0.94260000       1.65430000       0.99990000
H        1.34960000      -1.33610000      -1.20440000
H        2.16020000       0.18400000      -0.59930000
H        1.32940000      -0.32620000       1.74880000
H        0.52170000      -1.84160000       1.13690000
H       -2.21290000       0.47520000      -2.04520000
H       -1.18690000      -0.84070000      -2.68260000
H       -3.87260000      -1.20420000      -1.23820000
H       -2.85440000      -2.51890000      -1.88300000
