20
Properties=species:S:1:pos:R:3 gdb_66647=T pbc="F F F"
C       -0.12410000       1.50970000      -0.04170000
C        0.08360000       0.03680000       0.03660000
C        0.67950000      -0.97100000      -0.87180000
C        1.35710000      -1.75040000       0.26030000
C        1.00340000      -3.24150000       0.30820000
C       -0.53670000      -3.23620000       0.55870000
C       -0.87500000      -1.75380000       0.71920000
C        0.37140000      -0.97940000       1.19910000
N       -0.80910000      -0.98860000      -0.58350000
H        0.78610000       2.05490000       0.23240000
H       -0.40020000       1.79490000      -1.06170000
H       -0.92730000       1.83670000       0.62840000
H        0.96270000      -0.89200000      -1.91460000
H        2.41220000      -1.50020000       0.38340000
H        1.27820000      -3.75530000      -0.61800000
H        1.53520000      -3.74310000       1.12400000
H       -1.10200000      -3.66610000      -0.27370000
H       -0.80110000      -3.80030000       1.45890000
H       -1.82140000      -1.53480000       1.21640000
H        0.60490000      -0.77540000       2.24260000
