19
Properties=species:S:1:pos:R:3 gdb_73558=T pbc="F F F"
C       -0.11620000       1.81740000      -0.00300000
C        0.03210000       0.29930000       0.06470000
O        0.79920000      -0.12110000      -1.06260000
C        2.01850000      -0.73900000      -0.62410000
C        2.21570000      -0.35040000       0.87000000
C        0.77490000      -0.28890000       1.24120000
C       -0.06520000      -0.96220000       2.01530000
C       -1.44530000      -0.88660000       1.40850000
O       -1.26050000      -0.28460000       0.12480000
H        0.86120000       2.30810000       0.01180000
H       -0.62100000       2.08290000      -0.93580000
H       -0.71350000       2.18340000       0.83690000
H        1.94170000      -1.83090000      -0.71660000
H        2.82880000      -0.39080000      -1.27150000
H        2.79650000      -1.08920000       1.42490000
H        2.71460000       0.62200000       0.95090000
H        0.17150000      -1.57470000       2.87630000
H       -1.88120000      -1.88740000       1.28320000
H       -2.15830000      -0.29270000       2.00230000
