18
Properties=species:S:1:pos:R:3 gdb_74302=T pbc="F F F"
C       -0.07530000       1.56680000      -0.21970000
C       -0.11540000       0.08120000      -0.11290000
N       -1.16160000      -0.64730000      -0.13720000
C       -0.70470000      -2.04250000       0.02590000
C       -1.24740000      -2.93080000      -1.10100000
C        0.83810000      -1.93910000       0.06770000
O        1.09460000      -0.51810000       0.01810000
C       -1.29030000      -2.53090000       1.35480000
O       -0.65300000      -3.00660000       2.25760000
H        0.52340000       1.86750000      -1.08500000
H       -1.08740000       1.95710000      -0.31850000
H        0.39990000       1.99410000       0.66870000
H       -0.92910000      -2.53420000      -2.06930000
H       -0.87930000      -3.95730000      -1.00200000
H       -2.34100000      -2.94780000      -1.08630000
H        1.25260000      -2.34560000       0.99260000
H        1.32260000      -2.40630000      -0.79440000
H       -2.39130000      -2.39710000       1.42020000
