18
Properties=species:S:1:pos:R:3 gdb_44604=T pbc="F F F"
O        0.21070000       0.36550000       0.81760000
C        0.06290000       1.37100000       0.17360000
C       -1.21910000       2.20880000       0.07490000
C       -0.74630000       3.50150000      -0.55100000
C        0.49450000       4.26300000      -0.05740000
C        1.38040000       3.78590000       1.10340000
C        2.09970000       2.54160000       0.50500000
N        1.12390000       2.04500000      -0.50100000
C        0.60280000       3.23970000      -1.15810000
H       -1.96690000       1.71520000      -0.55630000
H       -1.64830000       2.28980000       1.07830000
H       -1.46540000       4.10490000      -1.09390000
H        0.49500000       5.31990000      -0.29880000
H        2.08080000       4.57030000       1.40370000
H        0.80350000       3.51030000       1.99320000
H        3.02490000       2.82800000      -0.00230000
H        2.31690000       1.74970000       1.22310000
H        0.88910000       3.42440000      -2.18620000
