15
Properties=species:S:1:pos:R:3 gdb_66988=T pbc="F F F"
C       -0.01700000       1.52130000       0.01520000
C       -0.02670000       0.02230000      -0.00440000
C        1.13810000      -0.90180000      -0.39490000
O        0.62180000      -2.08660000      -0.99730000
C       -0.56120000      -2.20850000      -0.21720000
O       -0.13100000      -2.10960000       1.13490000
C        0.64090000      -0.91700000       1.01310000
C       -1.20660000      -0.80860000      -0.42980000
O       -2.29680000      -0.49300000      -0.81190000
H        0.94590000       1.91180000       0.35870000
H       -0.20670000       1.92380000      -0.98480000
H       -0.79430000       1.90590000       0.68280000
H        2.10360000      -0.57890000      -0.75500000
H       -1.11230000      -3.11980000      -0.42170000
H        1.16400000      -0.60760000       1.90570000
