14
Properties=species:S:1:pos:R:3 gdb_131099=T pbc="F F F"
O        0.54270000       1.58600000      -0.14490000
C        0.16010000       0.22250000       0.00480000
C        0.43470000      -0.56850000      -1.20140000
C        0.68480000      -1.20580000      -2.18890000
C        0.79400000      -0.39510000       1.22860000
C        1.25480000       0.25210000       2.33210000
O        1.73510000      -0.62280000       3.22590000
N        1.59550000      -1.91130000       2.71900000
C        1.04140000      -1.76190000       1.54220000
H        1.47420000       1.59650000      -0.39550000
H       -0.92790000       0.26630000       0.14550000
H        0.89470000      -1.76490000      -3.06780000
H        1.30540000       1.29420000       2.60340000
H        0.83700000      -2.63360000       0.93720000
