19
Properties=species:S:1:pos:R:3 gdb_63522=T pbc="F F F"
C        0.10340000       1.54790000      -0.23790000
C       -0.00500000       0.04610000      -0.05080000
C       -1.25850000      -0.58470000      -0.62780000
C        1.28810000      -0.77460000      -0.09250000
C        0.57100000      -0.54720000       1.19330000
C        1.01260000       0.06490000       2.51420000
C        0.28410000      -1.14330000       3.11080000
O        0.04840000      -1.59740000       4.18240000
O       -0.08280000      -1.64880000       1.88500000
H        1.01710000       1.95000000       0.21070000
H        0.11810000       1.80260000      -1.30360000
H       -0.75020000       2.06500000       0.21530000
H       -1.29250000      -0.44760000      -1.71420000
H       -1.30580000      -1.65470000      -0.41370000
H       -2.15680000      -0.12190000      -0.20410000
H        1.23500000      -1.77220000      -0.51600000
H        2.23050000      -0.26070000      -0.25550000
H        2.08600000       0.07930000       2.71250000
H        0.57380000       1.02880000       2.77970000
