20
Properties=species:S:1:pos:R:3 gdb_6090=T pbc="F F F"
C       -0.42300000       1.35310000      -0.05210000
C        0.15080000      -0.05280000       0.15430000
C        0.77530000      -0.59970000      -1.13450000
C        1.18600000      -0.08530000       1.29270000
N        0.63980000       0.29530000       2.59010000
C        0.06520000      -0.65430000       3.40150000
N       -0.25740000      -0.19340000       4.67660000
O       -0.12160000      -1.80580000       3.05200000
H        0.35590000       2.05080000      -0.38630000
H       -1.21130000       1.35130000      -0.81170000
H       -0.85110000       1.74440000       0.87560000
H       -0.66270000      -0.72320000       0.45710000
H        1.61520000       0.02550000      -1.46280000
H        1.15120000      -1.61880000      -0.99600000
H        0.04360000      -0.62050000      -1.94840000
H        1.59890000      -1.09580000       1.37460000
H        2.01090000       0.59960000       1.06320000
H        0.99010000       1.13420000       3.02090000
H       -0.53240000       0.77410000       4.76230000
H       -0.87250000      -0.82950000       5.16180000
