20
Properties=species:S:1:pos:R:3 gdb_120452=T pbc="F F F"
C        0.15670000       1.63740000       0.05500000
C        0.10170000       0.11630000      -0.01020000
C        0.81330000      -0.58400000      -1.21210000
N        1.65420000      -1.28390000      -0.22840000
C        2.93420000      -1.94560000      -0.32970000
C        4.09840000      -0.96300000      -0.53950000
O        4.03340000       0.15250000       0.32480000
C        1.15780000      -0.60550000       0.85510000
O        1.52110000      -0.57510000       2.00840000
H        1.17800000       1.99470000      -0.11190000
H       -0.49710000       2.09200000      -0.69580000
H       -0.16200000       1.98520000       1.04190000
H       -0.91260000      -0.25520000       0.16010000
H        0.20260000      -1.25160000      -1.82790000
H        1.36630000       0.10960000      -1.85530000
H        3.07800000      -2.48350000       0.61460000
H        2.91490000      -2.69110000      -1.13260000
H        5.04300000      -1.52050000      -0.42820000
H        4.08120000      -0.56050000      -1.55940000
H        3.71910000      -0.13910000       1.19040000
