19
Properties=species:S:1:pos:R:3 gdb_97639=T pbc="F F F"
C       -0.11000000       1.54120000      -0.01760000
C       -0.06780000       0.01240000       0.02930000
C        0.74150000      -0.53850000       1.23910000
C       -0.01190000      -0.21640000       2.53330000
O        0.31810000       0.63090000       3.31790000
C        0.93330000      -1.98100000       1.14650000
C        1.03950000      -3.18070000       1.08930000
C        1.23110000      -4.63110000       1.05300000
O        1.37590000      -5.21600000       2.33870000
H        0.89680000       1.95980000      -0.11840000
H       -0.70180000       1.88170000      -0.87210000
H       -0.55250000       1.96500000       0.88890000
H       -1.08250000      -0.40180000       0.07070000
H        0.38760000      -0.38490000      -0.88310000
H        1.70590000      -0.01950000       1.29150000
H       -0.92730000      -0.83250000       2.67990000
H        0.35710000      -5.11520000       0.60350000
H        2.09050000      -4.86500000       0.40420000
H        2.07720000      -4.74020000       2.79610000
