17
Properties=species:S:1:pos:R:3 gdb_97903=T pbc="F F F"
N        0.34770000       1.54040000      -0.30580000
C        0.04940000       0.13440000      -0.05610000
C        0.41970000      -0.85550000      -1.20880000
C       -0.24650000      -0.48990000      -2.45050000
C       -0.82970000      -0.14240000      -3.44680000
C       -1.47960000       0.26460000      -4.69410000
O       -0.78620000       1.29390000      -5.38370000
C        0.71790000      -0.30010000       1.17970000
N        1.26410000      -0.67380000       2.12650000
H        1.34680000       1.66680000      -0.44330000
H       -0.10890000       1.81570000      -1.17150000
H       -1.03140000       0.05370000       0.11160000
H        1.50870000      -0.84760000      -1.34210000
H        0.14870000      -1.87640000      -0.91320000
H       -1.62640000      -0.62190000      -5.33110000
H       -2.47600000       0.66780000      -4.48310000
H        0.11080000       0.98260000      -5.54410000
