18
Properties=species:S:1:pos:R:3 gdb_88239=T pbc="F F F"
O       -0.00010000       1.38550000      -0.10590000
C       -0.00830000       0.00230000       0.01430000
C       -0.38530000      -0.65430000       1.30640000
C       -1.33640000      -0.74480000       0.10650000
C       -2.53160000       0.04160000       0.09400000
C       -3.49780000       0.76840000       0.05540000
C       -4.69030000       1.56770000       0.03640000
C       -4.73370000       2.82930000      -0.76580000
N       -5.50220000       1.66330000      -1.20400000
H       -0.91920000       1.68250000      -0.15380000
H        0.76860000      -0.46180000      -0.58680000
H        0.12000000      -1.56600000       1.60560000
H       -0.68900000      -0.00290000       2.11750000
H       -1.39600000      -1.70570000      -0.39560000
H       -5.29940000       1.52010000       0.93570000
H       -5.32850000       3.66260000      -0.40280000
H       -3.83570000       3.10600000      -1.31040000
H       -5.00600000       1.18850000      -1.95470000
