15
Properties=species:S:1:pos:R:3 gdb_128903=T pbc="F F F"
N        0.00530000      -1.20400000       0.08540000
C       -0.02190000      -0.04910000       0.07090000
C       -0.02310000       1.41160000       0.05340000
C        1.41010000       1.99380000      -0.07310000
C        1.41540000       3.48710000      -0.08360000
C        1.40140000       4.41910000      -1.09720000
N        1.37550000       5.66990000      -0.55820000
N        1.37200000       5.57400000       0.73870000
N        1.39150000       4.25910000       1.03430000
H       -0.63970000       1.75940000      -0.78180000
H       -0.50220000       1.77420000       0.96930000
H        2.02630000       1.61040000       0.74690000
H        1.86090000       1.62800000      -0.99920000
H        1.41560000       4.26170000      -2.16390000
H        1.41580000       3.97570000       2.00170000
