19
Properties=species:S:1:pos:R:3 gdb_30739=T pbc="F F F"
C       -0.74010000       0.84820000       0.03740000
N        0.67180000       0.44020000       0.00210000
C        1.04700000      -0.49730000       0.98230000
C        0.78480000      -1.84120000       1.15000000
O        0.01780000      -2.57190000       0.27900000
C        1.43200000      -2.29470000       2.33580000
C        1.40390000      -3.68830000       2.88520000
C        2.07530000      -1.19210000       2.86510000
N        1.83970000      -0.12130000       2.05110000
H       -0.94770000       1.34040000       0.99220000
H       -0.92250000       1.57240000      -0.76310000
H       -1.44360000       0.01110000      -0.07620000
H        0.89960000       0.09270000      -0.92290000
H       -0.01040000      -3.48090000       0.59080000
H        1.83860000      -4.42000000       2.19060000
H        1.97610000      -3.75230000       3.81500000
H        0.38380000      -4.02680000       3.11260000
H        2.67570000      -1.10270000       3.75650000
H        2.20830000       0.80750000       2.15540000
