19
Properties=species:S:1:pos:R:3 gdb_70884=T pbc="F F F"
C       -0.14610000       1.43020000      -0.02150000
C        0.01340000      -0.06010000      -0.04750000
C        0.98140000      -0.88400000      -0.90290000
C        0.13740000      -2.11970000      -0.47740000
O       -0.04090000      -3.22040000      -1.30020000
C        0.41860000      -2.26170000       1.04740000
C       -0.33090000      -0.94010000       1.20060000
C       -1.04960000      -1.11060000      -0.11920000
O       -2.34940000      -0.99100000      -0.52850000
H        0.73010000       1.92020000       0.41880000
H       -0.28110000       1.83090000      -1.03240000
H       -1.02270000       1.71970000       0.56720000
H        0.84820000      -0.66470000      -1.96650000
H        2.04860000      -0.88510000      -0.64660000
H        0.81480000      -3.64150000      -1.44030000
H       -0.14080000      -3.09890000       1.47530000
H        1.46810000      -2.31170000       1.36120000
H       -0.69070000      -0.46750000       2.10570000
H       -2.86110000      -1.71360000      -0.14670000
