18
Properties=species:S:1:pos:R:3 gdb_133810=T pbc="F F F"
C       -0.10770000       1.54040000       0.01230000
C       -0.01710000       0.02430000       0.00210000
O       -1.32970000      -0.50600000       0.01220000
C       -1.35710000      -1.91300000       0.00420000
C       -2.82070000      -2.34290000       0.01610000
C       -2.98560000      -3.84580000       0.00940000
F       -2.40860000      -4.41620000       1.08200000
F       -4.28050000      -4.19410000       0.01970000
F       -2.42910000      -4.40420000      -1.08030000
H        0.89370000       1.98080000       0.00490000
H       -0.65140000       1.89850000      -0.86630000
H       -0.63350000       1.88760000       0.90620000
H        0.52510000      -0.32710000      -0.89180000
H        0.54310000      -0.33800000       0.88050000
H       -0.85280000      -2.31210000      -0.89040000
H       -0.83520000      -2.32260000       0.88380000
H       -3.31900000      -1.95250000       0.90750000
H       -3.33640000      -1.94260000      -0.86090000
