21
Properties=species:S:1:pos:R:3 gdb_92264=T pbc="F F F"
C       -0.80930000       1.28580000       0.16070000
C       -0.01140000       0.01030000      -0.00810000
O        1.13650000       0.18960000      -0.87320000
C        2.01150000      -0.49850000       0.04900000
C        3.15270000       0.38830000       0.57010000
C        2.58190000       0.96030000       1.84590000
C        1.38170000       0.46500000       2.16810000
C        0.57450000       0.78700000       3.38840000
C        0.90580000      -0.52710000       1.13360000
H       -0.19330000       2.07550000       0.59880000
H       -1.16500000       1.62940000      -0.81600000
H       -1.68380000       1.11680000       0.79860000
H       -0.65840000      -0.78730000      -0.40340000
H        2.34730000      -1.45570000      -0.36500000
H        4.07230000      -0.18330000       0.75550000
H        3.39850000       1.15380000      -0.17600000
H        3.11860000       1.68920000       2.44560000
H        1.08790000       1.50780000       4.03060000
H       -0.40560000       1.20370000       3.12700000
H        0.37980000      -0.11690000       3.98030000
H        0.59860000      -1.48640000       1.56000000
