16
Properties=species:S:1:pos:R:3 gdb_123902=T pbc="F F F"
C       -0.03690000       1.47160000       0.02780000
C        1.31920000       2.17920000       0.02740000
N        2.09570000       1.78050000       1.19080000
C        2.11990000       0.52190000       1.74240000
C        1.10730000      -0.39550000       1.18940000
C        0.15120000      -0.05090000       0.06720000
N        1.08350000      -1.58610000       1.71570000
N        1.05790000      -2.62390000       2.17180000
O        2.90010000       0.21070000       2.62850000
H       -0.60940000       1.79630000       0.90320000
H       -0.59940000       1.75650000      -0.86620000
H        1.85320000       1.95440000      -0.90980000
H        1.17830000       3.26400000       0.06270000
H        2.84700000       2.37360000       1.50870000
H       -0.81130000      -0.55230000       0.21340000
H        0.54280000      -0.39490000      -0.90100000
