13
Properties=species:S:1:pos:R:3 gdb_10454=T pbc="F F F"
O       -0.91440000       0.90670000      -0.21650000
C        0.15640000       0.86710000       0.32940000
C        1.28150000       1.81180000       0.01560000
C        1.15420000       2.61770000      -1.26670000
C        1.30520000       1.78830000      -2.46290000
N        1.43470000       1.13820000      -3.40830000
C        2.04850000       2.33590000       1.16820000
O        2.57530000       1.30660000       0.34690000
H        0.40630000       0.13070000       1.12300000
H        0.16590000       3.08820000      -1.28910000
H        1.91050000       3.40750000      -1.28770000
H        2.51810000       3.31350000       1.07140000
H        1.77860000       2.04070000       2.18110000
