17
Properties=species:S:1:pos:R:3 gdb_3333=T pbc="F F F"
C       -0.04450000       1.49300000      -0.14390000
C        1.28630000       0.81520000       0.01700000
C        2.08200000       0.86190000       1.30890000
C        1.21280000       0.76050000       2.57950000
C        0.13990000      -0.29250000       2.46020000
C       -0.38910000      -0.64270000       1.28540000
C        0.02340000      -0.02390000       0.00220000
H       -0.46040000       2.04700000       0.69060000
H       -0.29670000       1.89790000      -1.11820000
H        1.89760000       0.76340000      -0.87980000
H        2.78390000       0.01810000       1.29950000
H        2.69050000       1.77290000       1.35080000
H        1.85560000       0.55120000       3.44220000
H        0.75310000       1.73620000       2.79250000
H       -0.21320000      -0.75920000       3.37560000
H       -1.16430000      -1.40340000       1.24240000
H       -0.18890000      -0.59990000      -0.89260000
