15
Properties=species:S:1:pos:R:3 gdb_19507=T pbc="F F F"
O        0.30990000       0.18150000       0.58180000
C        0.27190000       1.34250000       0.25750000
N        1.26020000       2.00850000      -0.43740000
C        1.92020000       3.25520000      -0.12280000
C        1.99030000       3.69410000       1.34200000
C        2.76580000       2.57960000       2.01330000
C        3.16400000       1.64280000       1.15040000
C        2.69650000       1.95380000      -0.23580000
H       -0.61410000       1.99020000       0.41750000
H        1.92200000       4.00440000      -0.90850000
H        2.50260000       4.66020000       1.43060000
H        0.99520000       3.83320000       1.78440000
H        2.92520000       2.55300000       3.08510000
H        3.72640000       0.75040000       1.39210000
H        3.28850000       1.68510000      -1.10520000
