22
Properties=species:S:1:pos:R:3 gdb_122385=T pbc="F F F"
C        0.55290000       1.04230000       0.29860000
O        0.90900000       0.40570000      -0.90700000
C       -0.06410000      -0.49310000      -1.40000000
C       -0.04160000      -1.85210000      -0.69000000
N       -1.02490000      -2.72680000      -1.31280000
C       -0.72670000      -3.57960000      -2.44580000
C        0.67650000      -4.21420000      -2.37890000
C        0.31750000      -4.80290000      -0.97800000
C       -1.07670000      -4.15330000      -1.09120000
H       -0.40740000       1.57390000       0.20750000
H        0.47830000       0.34350000       1.14490000
H        1.33750000       1.76990000       0.52170000
H       -1.07410000      -0.05990000      -1.33750000
H        0.16750000      -0.63970000      -2.46090000
H        0.98980000      -2.23260000      -0.70790000
H       -0.32650000      -1.73820000       0.36190000
H       -1.33510000      -3.47870000      -3.33840000
H        0.80700000      -4.99560000      -3.13040000
H        1.52860000      -3.53060000      -2.44000000
H        0.26750000      -5.89360000      -0.99050000
H        0.93050000      -4.49300000      -0.12640000
H       -2.00700000      -4.58290000      -0.73370000
