20
Properties=species:S:1:pos:R:3 gdb_15941=T pbc="F F F"
C       -0.12410000       1.53560000       0.03170000
C       -0.09170000       0.00400000      -0.05470000
C        0.74310000      -0.49950000      -1.21320000
C        0.19920000      -0.31920000      -2.66600000
C        0.43450000      -1.83610000      -2.95060000
C        1.04180000      -1.99620000      -1.54100000
O        2.46430000      -1.75890000      -1.51500000
C        2.27910000      -0.37770000      -1.13040000
H        0.88210000       1.94630000       0.16990000
H       -0.53870000       1.97560000      -0.88160000
H       -0.73810000       1.87180000       0.87240000
H        0.30330000      -0.40930000       0.88280000
H       -1.11610000      -0.37900000      -0.15190000
H       -0.85420000      -0.02780000      -2.69780000
H        0.76360000       0.37820000      -3.29090000
H       -0.49340000      -2.39780000      -3.09100000
H        1.12490000      -2.08420000      -3.75940000
H        0.75300000      -2.85460000      -0.92640000
H        2.76210000       0.31910000      -1.82770000
H        2.66490000      -0.19180000      -0.11780000
