15
Properties=species:S:1:pos:R:3 gdb_1902=T pbc="F F F"
O       -0.13470000       1.43690000      -0.09110000
C       -0.03010000       0.03760000       0.00220000
C       -0.04810000      -0.66600000       1.39610000
C       -1.51970000      -0.18920000       1.55940000
C       -1.38670000      -0.71090000       0.08650000
O       -2.35920000      -0.80930000      -0.88710000
C       -0.60000000      -1.91560000       0.64690000
H        0.73940000       1.81810000       0.03400000
H        0.69110000      -0.36520000      -0.72170000
H        0.73480000      -0.65300000       2.15080000
H       -2.15030000      -0.78580000       2.22280000
H       -1.67360000       0.88150000       1.68940000
H       -2.61470000       0.08510000      -1.14010000
H        0.07810000      -2.42640000      -0.04280000
H       -1.17060000      -2.62110000       1.25340000
