15
Properties=species:S:1:pos:R:3 gdb_70182=T pbc="F F F"
O       -0.12130000       1.37240000       0.34200000
C        0.02790000       0.02470000       0.00870000
C       -0.45260000      -0.45500000      -1.36060000
C       -1.23710000      -0.78470000      -0.12330000
O       -1.31070000      -2.09170000       0.37390000
C       -0.20070000      -2.76400000       0.81280000
O       -0.30550000      -3.92750000       1.09920000
C        1.04620000      -1.99040000       0.96570000
C        1.14680000      -0.69690000       0.64220000
H        0.43890000       1.89350000      -0.24460000
H       -0.88190000       0.29710000      -2.01370000
H        0.11470000      -1.24260000      -1.84350000
H       -2.17630000      -0.26810000       0.03280000
H        1.86150000      -2.54480000       1.41370000
H        2.05230000      -0.13180000       0.84910000
