20
Properties=species:S:1:pos:R:3 gdb_102277=T pbc="F F F"
C        0.02110000       1.55260000      -0.40730000
C        0.05650000       0.04390000      -0.15750000
C        0.84540000      -0.73950000      -1.23600000
N        2.25160000      -0.40460000      -1.29970000
C        2.74570000       0.41430000      -2.28160000
C        4.26130000       0.43990000      -2.39050000
O        2.02310000       1.06920000      -3.01170000
C        0.69680000      -2.22410000      -0.96760000
O        1.61940000      -2.96350000      -0.73020000
H        1.02790000       1.97700000      -0.39810000
H       -0.42190000       1.78320000      -1.38000000
H       -0.56610000       2.05240000       0.36920000
H        0.50290000      -0.16650000       0.82250000
H       -0.96710000      -0.35200000      -0.12770000
H        0.39530000      -0.51420000      -2.21290000
H        2.86560000      -1.09220000      -0.88480000
H        4.75970000       0.14930000      -1.46210000
H        4.57490000      -0.24970000      -3.18150000
H        4.57700000       1.44340000      -2.67910000
H       -0.35150000      -2.59160000      -0.96960000
