24
Properties=species:S:1:pos:R:3 gdb_7587=T pbc="F F F"
C       -2.14050000       0.24520000       1.88250000
C       -1.15580000      -0.57060000       1.02870000
C       -0.98450000       0.05920000      -0.36330000
C        0.18300000      -0.78660000       1.74250000
C        0.98850000       0.46790000       2.04370000
C        0.25260000      -1.89470000       2.77280000
C        0.99470000      -2.04060000       1.46310000
C        0.62060000      -3.11210000       0.46060000
H       -1.80000000       1.27740000       2.01650000
H       -3.12430000       0.28700000       1.40340000
H       -2.26610000      -0.19800000       2.87550000
H       -1.60870000      -1.55870000       0.88500000
H       -0.59710000       1.08150000      -0.29680000
H       -0.29310000      -0.52090000      -0.98210000
H       -1.94520000       0.10940000      -0.88670000
H        0.43500000       1.16430000       2.68290000
H        1.91560000       0.21430000       2.56720000
H        1.26640000       1.00350000       1.12940000
H        0.81740000      -1.72980000       3.68500000
H       -0.63370000      -2.50850000       2.90950000
H        2.07000000      -1.88710000       1.53040000
H       -0.45640000      -3.29810000       0.43020000
H        0.94120000      -2.84770000      -0.55360000
H        1.10340000      -4.06110000       0.72040000
