15
Properties=species:S:1:pos:R:3 gdb_131677=T pbc="F F F"
O       -0.01340000       1.42640000       0.00660000
C        0.00490000       0.01330000       0.00230000
C       -1.39930000      -0.50190000       0.01240000
C       -2.49680000       0.28720000       0.02340000
N       -3.80420000      -0.18400000       0.03270000
N       -4.01210000      -1.43420000       0.03100000
N       -2.94810000      -2.26850000       0.02020000
C       -1.58720000      -1.94270000       0.01000000
N       -0.60910000      -2.77100000      -0.00020000
H        0.89590000       1.73690000       0.00120000
H        0.51790000      -0.39790000      -0.88160000
H        0.53240000      -0.40320000       0.87520000
H       -2.40850000       1.36540000       0.02570000
H       -3.22310000      -3.24120000       0.01980000
H       -0.92250000      -3.74260000      -0.00030000
