21
Properties=species:S:1:pos:R:3 gdb_122271=T pbc="F F F"
C       -0.01740000       1.50790000      -0.54440000
C        0.05010000       0.04450000      -0.14300000
O       -1.26040000      -0.48860000      -0.15970000
C       -1.31800000      -1.84840000       0.21680000
C       -2.76290000      -2.27170000       0.25250000
C       -3.47000000      -2.62170000      -1.05030000
C       -3.13290000      -3.71130000      -0.09400000
C       -3.60520000      -1.61900000       1.29360000
O       -4.78750000      -1.82120000       1.44140000
H        0.98310000       1.95060000      -0.54020000
H       -0.43940000       1.61160000      -1.54790000
H       -0.64840000       2.06750000       0.15170000
H        0.69670000      -0.51910000      -0.83700000
H        0.49040000      -0.06280000       0.86300000
H       -0.75280000      -2.47630000      -0.49200000
H       -0.85260000      -1.98690000       1.20920000
H       -4.50700000      -2.31420000      -1.11770000
H       -2.88740000      -2.51900000      -1.95870000
H       -2.31650000      -4.38530000      -0.32960000
H       -3.93990000      -4.13930000       0.48930000
H       -3.05850000      -0.91050000       1.95340000
