19
Properties=species:S:1:pos:R:3 gdb_64495=T pbc="F F F"
C       -0.00920000       1.41850000      -0.56260000
C        0.11390000      -0.06930000      -0.24320000
C       -1.10600000      -0.85900000      -0.67620000
C       -2.45860000      -0.29020000      -0.76560000
O       -1.68730000      -0.51880000      -1.94510000
C        1.47640000      -0.82030000      -0.48590000
C        2.13230000      -0.05780000       0.69000000
C        0.73090000      -0.54950000       1.11750000
O        1.05300000      -1.85390000       0.48880000
H        0.95050000       1.93560000      -0.56760000
H       -0.46000000       1.53690000      -1.55140000
H       -0.65220000       1.92520000       0.16480000
H       -1.02260000      -1.92760000      -0.50520000
H       -3.31950000      -0.94490000      -0.63540000
H       -2.63620000       0.75520000      -0.52140000
H        1.91320000      -1.16700000      -1.42330000
H        2.95130000      -0.59910000       1.16320000
H        2.32810000       1.01060000       0.60560000
H        0.27410000      -0.57120000       2.10860000
