15
Properties=species:S:1:pos:R:3 gdb_25756=T pbc="F F F"
C        0.15980000       1.51200000       0.02710000
C       -0.03760000       0.04460000       0.02540000
C       -1.12730000      -0.77320000       0.00070000
N       -0.70540000      -2.10490000       0.01410000
C        0.58010000      -2.02860000       0.04550000
O        1.06710000      -0.76360000       0.05440000
C       -2.55820000      -0.38700000      -0.03550000
N       -3.40510000      -1.44910000      -0.05470000
O       -2.92780000       0.77780000      -0.04790000
H        0.74620000       1.83150000      -0.84140000
H       -0.82110000       1.98680000      -0.00150000
H        0.69640000       1.83620000       0.92560000
H        1.30380000      -2.82810000       0.06500000
H       -3.04260000      -2.38770000      -0.04300000
H       -4.39550000      -1.27890000      -0.07940000
