20
Properties=species:S:1:pos:R:3 gdb_116850=T pbc="F F F"
C       -0.08810000       1.56120000      -0.00070000
C       -0.06810000       0.03180000      -0.01630000
C        0.79230000      -0.52890000      -1.16710000
C        0.83260000      -1.98410000      -1.21060000
C        0.85790000      -3.18970000      -1.23570000
C        0.93240000      -4.64010000      -1.32510000
O        1.57610000      -5.21690000      -2.18490000
N        0.21290000      -5.27990000      -0.35450000
C        0.14790000      -6.72340000      -0.25670000
H        0.92070000       1.97060000       0.12210000
H       -0.49720000       1.96290000      -0.93440000
H       -0.70280000       1.93860000       0.82160000
H        0.32000000      -0.35050000       0.93440000
H       -1.08750000      -0.35820000      -0.11430000
H        0.41300000      -0.15240000      -2.12670000
H        1.81770000      -0.14470000      -1.08010000
H       -0.28550000      -4.71180000       0.31030000
H       -0.88120000      -7.08500000      -0.36280000
H        0.75350000      -7.13120000      -1.06670000
H        0.54650000      -7.07720000       0.70090000
