16
Properties=species:S:1:pos:R:3 gdb_63449=T pbc="F F F"
C       -0.06570000       1.52490000       0.00530000
C       -0.03960000       0.01120000       0.00900000
C       -1.26250000      -0.65800000      -0.58250000
N        1.27690000      -0.57840000      -0.20580000
C        0.69100000      -0.69120000       1.15740000
C        1.35310000       0.07750000       2.19060000
N        1.85530000       0.70730000       3.01870000
C        0.20610000      -1.97810000       1.60070000
N       -0.17770000      -3.01740000       1.93200000
H        0.85280000       1.94170000       0.42010000
H       -0.16940000       1.88150000      -1.02460000
H       -0.91660000       1.89770000       0.58290000
H       -1.33880000      -0.39450000      -1.64270000
H       -1.22380000      -1.74630000      -0.49770000
H       -2.17280000      -0.30990000      -0.08580000
H        1.21450000      -1.48450000      -0.66780000
