19
Properties=species:S:1:pos:R:3 gdb_78541=T pbc="F F F"
C       -0.17790000       1.60010000      -0.02930000
C        0.15540000       0.10980000       0.05430000
C        1.43810000      -0.64930000      -0.27260000
C        2.76820000      -0.10400000       0.33770000
O        3.98280000      -0.64390000      -0.04580000
C        2.65650000       1.17210000       1.12180000
C        2.17080000      -0.13870000       1.72000000
C        0.84580000      -0.70580000       1.11770000
O        0.25190000      -1.81100000       1.70570000
H        0.48680000       2.13770000      -0.71160000
H       -1.19660000       1.72690000      -0.40870000
H       -0.13630000       2.09390000       0.94530000
H       -0.66580000      -0.50540000      -0.31440000
H        1.46050000      -1.43220000      -1.02060000
H        4.30120000      -0.15060000      -0.81090000
H        3.61270000       1.47820000       1.53930000
H        2.00600000       1.99520000       0.86320000
H        2.59590000      -0.55230000       2.62490000
H       -0.34990000      -1.49830000       2.39140000
