19
Properties=species:S:1:pos:R:3 gdb_81767=T pbc="F F F"
C       -0.10120000       1.61290000      -0.01070000
C        0.04170000       0.10260000       0.01270000
O       -1.20770000      -0.54530000      -0.25110000
C        1.12520000      -0.56530000      -0.91670000
O        2.01250000       0.27790000      -1.62020000
C        1.74910000      -1.25520000       0.28610000
C        2.15330000      -0.23520000       1.33590000
C        0.71620000      -0.58420000       1.21120000
O       -0.00880000      -1.08570000       2.26920000
H        0.86930000       2.10410000       0.08250000
H       -0.55790000       1.93690000      -0.95260000
H       -0.73590000       1.95770000       0.81500000
H       -1.89410000      -0.04730000       0.20610000
H        0.61990000      -1.27410000      -1.58440000
H        1.54880000       0.63350000      -2.38520000
H        2.15330000      -2.25930000       0.29230000
H        2.63340000      -0.67420000       2.20490000
H        2.54390000       0.73690000       1.05030000
H       -0.75370000      -1.55610000       1.87130000
