21
Properties=species:S:1:pos:R:3 gdb_59266=T pbc="F F F"
C        0.07360000       1.36760000      -0.27000000
C        0.09460000      -0.10270000       0.17130000
C        0.70490000      -0.26890000       1.57020000
C       -1.30210000      -0.69310000       0.12550000
C       -1.93930000      -1.20980000      -1.15080000
O       -1.06090000      -1.47500000      -2.22550000
C       -0.56160000      -2.77880000      -1.98330000
O       -0.49550000      -2.94080000      -0.57720000
C       -1.56710000      -2.17470000      -0.06580000
H        1.08210000       1.79410000      -0.25550000
H       -0.32270000       1.46690000      -1.28500000
H       -0.55130000       1.97280000       0.39790000
H        0.71560000      -0.65930000      -0.53680000
H        0.75420000      -1.32450000       1.85380000
H        1.72020000       0.14020000       1.60430000
H        0.11050000       0.25740000       2.32680000
H       -2.01460000      -0.21300000       0.79680000
H       -2.95450000      -0.96010000      -1.44070000
H       -1.23310000      -3.53490000      -2.42530000
H        0.44460000      -2.86230000      -2.40280000
H       -2.27300000      -2.72660000       0.54580000
