16
Properties=species:S:1:pos:R:3 gdb_131489=T pbc="F F F"
O        0.07290000       1.32980000       0.78580000
C        0.03110000       0.05040000       0.23020000
C       -0.52620000      -1.02260000       1.10250000
C       -1.31380000      -0.57380000      -0.12160000
C       -2.56350000       0.19320000       0.00640000
N       -3.57080000       0.00710000      -0.85620000
N       -4.49770000       0.85970000      -0.43530000
N       -4.19590000       1.59250000       0.62540000
C       -2.96200000       1.18770000       0.92740000
H       -0.13350000       1.96620000       0.09210000
H        0.87030000      -0.19660000      -0.41950000
H       -0.07200000      -2.00660000       1.08610000
H       -0.90320000      -0.70530000       2.06840000
H       -1.31770000      -1.25070000      -0.96900000
H       -5.38920000       0.93850000      -0.89650000
H       -2.42090000       1.61020000       1.75660000
