15
Properties=species:S:1:pos:R:3 gdb_54753=T pbc="F F F"
O       -0.37510000       0.34270000      -1.03640000
C       -0.10720000       1.28750000      -0.09000000
O        0.88440000       1.30670000       0.57720000
C       -1.29690000       2.19820000      -0.05080000
C       -1.82960000       2.74710000      -1.33790000
C       -1.33410000       1.98960000      -2.56030000
C       -1.60730000       0.72230000      -1.71540000
N       -2.29670000      -0.35850000      -2.28230000
H       -1.72430000      -0.84010000      -2.96800000
H       -2.57390000      -1.02020000      -1.56320000
N       -2.42910000       1.51560000      -0.70850000
H       -1.50630000       2.72520000       0.87150000
H       -2.36370000       3.69060000      -1.34500000
H       -2.04620000       2.06490000      -3.38290000
H       -0.31360000       2.15120000      -2.91370000
