15
Properties=species:S:1:pos:R:3 gdb_132765=T pbc="F F F"
C        0.02780000       1.52040000       0.02840000
C        0.02260000       0.01530000       0.01690000
C       -0.10390000      -0.71950000      -1.15750000
F       -0.22580000      -0.06820000      -2.32230000
C       -0.10750000      -2.10680000      -1.15670000
N        0.01050000      -2.80580000      -0.02710000
C        0.13360000      -2.13790000       1.11660000
C        0.14490000      -0.74220000       1.18840000
O        0.27680000      -0.17460000       2.41670000
H        0.96370000       1.91710000       0.44180000
H       -0.07840000       1.91200000      -0.98330000
H       -0.79870000       1.92180000       0.62860000
H       -0.20810000      -2.64970000      -2.09150000
H        0.22930000      -2.71360000       2.03270000
H        0.27050000       0.78450000       2.33480000
