17
Properties=species:S:1:pos:R:3 gdb_16039=T pbc="F F F"
C       -0.12520000       1.49410000       0.01550000
N        0.11180000       0.06000000       0.07890000
C        1.38800000      -0.55040000      -0.18940000
C        2.58460000       0.26680000       0.32920000
C        1.95670000       0.25240000       1.75520000
C        0.76770000      -0.57870000       1.20830000
C        0.10570000      -1.61570000       1.93060000
C       -0.42060000      -2.48140000       2.57960000
H        0.70140000       2.12560000       0.36870000
H       -0.33700000       1.76210000      -1.02420000
H       -1.01180000       1.72570000       0.61270000
H        1.43110000      -1.34420000      -0.92780000
H        3.51790000      -0.29760000       0.28430000
H        2.74460000       1.24070000      -0.14210000
H        2.55350000      -0.32010000       2.46650000
H        1.69730000       1.21320000       2.20800000
H       -0.89720000      -3.24770000       3.13860000
