19
Properties=species:S:1:pos:R:3 gdb_120567=T pbc="F F F"
C        0.04680000       1.52020000      -0.26770000
C        0.08310000       0.02000000      -0.02570000
C        1.38900000      -0.71950000      -0.01660000
N        0.62450000      -0.57020000       1.20960000
C        1.14430000       0.30170000       2.26360000
C        1.76080000      -0.56630000       3.36090000
O        2.82220000      -1.36950000       2.87560000
C       -1.09170000      -0.67590000      -0.52250000
N       -2.02910000      -1.20700000      -0.94130000
H        0.97820000       1.99480000       0.04430000
H       -0.09760000       1.72080000      -1.33290000
H       -0.78230000       1.98270000       0.27620000
H        1.45250000      -1.72260000      -0.42880000
H        2.28190000      -0.10890000      -0.14370000
H        1.90300000       1.00840000       1.89480000
H        0.31320000       0.87940000       2.68450000
H        2.18600000       0.07950000       4.13640000
H        0.97390000      -1.17900000       3.82290000
H        2.42600000      -2.05880000       2.33300000
