16
Properties=species:S:1:pos:R:3 gdb_30515=T pbc="F F F"
C        0.08360000       1.37950000       0.11510000
N        0.20030000      -0.06820000       0.10610000
C        0.50320000      -0.65640000      -0.97560000
O        0.72650000       0.03660000      -2.14980000
C        1.00870000      -0.64120000      -3.29900000
N        1.09650000      -1.90290000      -3.41560000
C        0.89980000      -2.66530000      -2.27460000
C        0.62640000      -2.11250000      -1.06210000
N        0.48050000      -2.78110000       0.12740000
H        1.04080000       1.86570000      -0.11670000
H       -0.64600000       1.74080000      -0.62210000
H       -0.23500000       1.70670000       1.10730000
H        1.15290000       0.04320000      -4.12670000
H        0.98600000      -3.73930000      -2.40130000
H        0.20950000      -3.75030000       0.08680000
H        0.04410000      -2.22620000       0.85090000
