16
Properties=species:S:1:pos:R:3 gdb_34469=T pbc="F F F"
N        0.04230000      -1.04630000       0.00070000
C        0.01230000       0.10950000      -0.00630000
C        0.00160000       1.54580000      -0.01630000
O       -1.07180000       2.13260000       0.68490000
C       -1.40750000       3.34160000      -0.01880000
C       -0.12870000       3.69650000      -0.76970000
C        1.07720000       3.76010000       0.22910000
C        1.34380000       2.28310000      -0.06050000
C        0.39050000       2.31100000      -1.24880000
H       -2.25060000       3.16310000      -0.70170000
H       -1.69940000       4.08790000       0.72570000
H       -0.22290000       4.50060000      -1.49720000
H        1.88500000       4.38600000      -0.15560000
H        0.85280000       4.04280000       1.26190000
H        2.27730000       1.74540000       0.05360000
H        0.45860000       1.90500000      -2.24850000
