17
Properties=species:S:1:pos:R:3 gdb_37612=T pbc="F F F"
C       -0.02400000       1.56880000      -0.03170000
C        1.48790000       1.73260000      -0.00530000
C        2.04680000       0.72400000      -1.02730000
C        2.85480000       0.06640000       0.11280000
C        1.84470000      -1.08560000       0.13540000
C        1.00540000      -0.30080000       1.16740000
C        0.01150000       0.05010000       0.04350000
N        1.03470000      -0.42740000      -0.98570000
N        2.01610000       0.85180000       1.12570000
H       -0.52210000       2.02370000       0.83050000
H       -0.47430000       1.94430000      -0.95610000
H        1.90180000       2.74150000       0.01760000
H        2.39220000       1.00000000      -2.02550000
H        3.93680000       0.03110000       0.23840000
H        2.02880000      -2.15890000       0.09290000
H        0.70320000      -0.61470000       2.16840000
H       -0.93080000      -0.49610000      -0.01410000
