16
Properties=species:S:1:pos:R:3 gdb_49502=T pbc="F F F"
O        0.13570000       0.07620000       0.49890000
C        0.06620000       1.23310000       0.14740000
N        1.09280000       1.91210000      -0.47760000
C        2.55460000       1.68290000      -0.19030000
C        2.83610000       2.94830000      -1.04900000
C        1.62200000       3.27700000      -0.11870000
C        2.43810000       2.61540000       1.05310000
C        0.78350000       4.50740000      -0.07340000
O       -0.41520000       4.51130000      -0.19490000
H       -0.85420000       1.84120000       0.20270000
H        2.99840000       0.69370000      -0.26170000
H        3.76480000       3.48140000      -0.84460000
H        2.60200000       2.87380000      -2.11060000
H        1.84570000       2.23720000       1.88680000
H        3.34350000       3.13210000       1.38010000
H        1.36030000       5.44370000       0.09690000
