22
Properties=species:S:1:pos:R:3 gdb_96077=T pbc="F F F"
C       -0.01310000       1.54990000      -0.01540000
C        0.03610000       0.02500000       0.00370000
C        0.54020000      -0.56420000      -1.31880000
O        0.68510000      -1.96670000      -1.20510000
C        1.74500000      -2.30330000      -0.32700000
C        1.63120000      -1.63980000       1.05530000
C        1.57060000      -2.59610000       2.22700000
C        2.23870000      -0.28460000       1.21980000
N        0.78540000      -0.44400000       1.17980000
H        0.98220000       1.97690000      -0.18030000
H       -0.67080000       1.90800000      -0.81400000
H       -0.38940000       1.92870000       0.93870000
H       -0.98170000      -0.36150000       0.14500000
H       -0.19150000      -0.38470000      -2.11240000
H        1.49300000      -0.10030000      -1.63080000
H        1.70530000      -3.39040000      -0.21740000
H        2.70900000      -2.04870000      -0.79840000
H        2.47460000      -3.21470000       2.27470000
H        1.47570000      -2.04660000       3.16680000
H        0.70870000      -3.26680000       2.13620000
H        2.64240000       0.02760000       2.18040000
H        2.75390000       0.14050000       0.36000000
