20
Properties=species:S:1:pos:R:3 gdb_97143=T pbc="F F F"
C        0.14310000       1.39910000       0.15610000
N        0.37970000      -0.03520000       0.10230000
C        0.49860000      -0.60020000      -1.01550000
C        0.76130000      -2.07490000      -1.24210000
C        0.30580000      -2.28350000      -2.69470000
C        0.55820000      -0.90900000      -3.28870000
C        1.62360000      -0.60920000      -4.30400000
C        0.14840000      -0.45560000      -4.64710000
O        0.40110000       0.03350000      -2.23320000
H        1.08490000       1.92260000       0.36490000
H       -0.27940000       1.81650000      -0.76550000
H       -0.53370000       1.61610000       0.98840000
H        1.83550000      -2.26550000      -1.13580000
H        0.23990000      -2.68570000      -0.50540000
H        0.84860000      -3.07230000      -3.21850000
H       -0.76330000      -2.52100000      -2.73170000
H        2.19550000       0.30090000      -4.16370000
H        2.17490000      -1.43680000      -4.73810000
H       -0.31080000      -1.17910000      -5.31270000
H       -0.23900000       0.55300000      -4.73440000
