23
Properties=species:S:1:pos:R:3 gdb_109970=T pbc="F F F"
C       -0.19730000       1.82360000       0.54080000
C       -0.30970000       0.30770000       0.34230000
C        0.63330000      -0.47750000       1.24280000
C        0.69250000      -2.03930000       1.18170000
C        0.25600000      -2.68370000      -0.13300000
C        2.23560000      -1.95230000       1.35530000
C        2.19240000      -0.42680000       0.99870000
C        2.61430000      -0.10720000      -0.35220000
C        2.96770000       0.15750000      -1.47230000
H        0.80970000       2.17710000       0.29790000
H       -0.90110000       2.36010000      -0.10310000
H       -0.41220000       2.10630000       1.57780000
H       -1.33900000      -0.01490000       0.54830000
H       -0.11090000       0.06400000      -0.70670000
H        0.46250000      -0.17420000       2.28260000
H        0.17050000      -2.52880000       2.01000000
H        0.78290000      -2.25280000      -0.98980000
H        0.47370000      -3.75740000      -0.11630000
H       -0.81940000      -2.56520000      -0.30280000
H        2.56080000      -2.11040000       2.38650000
H        2.83820000      -2.57860000       0.69400000
H        2.73170000       0.21670000       1.70010000
H        3.28590000       0.39230000      -2.45770000
