22
Properties=species:S:1:pos:R:3 gdb_112438=T pbc="F F F"
C       -0.36810000       1.43350000       0.18620000
C       -0.55020000       0.01360000      -0.34980000
N        0.64630000      -0.47680000      -1.03540000
C        0.85100000       0.10390000      -2.36300000
C        0.53600000      -0.99390000      -3.39380000
O        0.58340000      -0.86950000      -4.58900000
C        0.17000000      -2.25020000      -2.60620000
C        0.71240000      -1.95340000      -1.19340000
C        2.15010000      -2.45040000      -1.01180000
H        0.49450000       1.47780000       0.85720000
H       -0.20420000       2.15610000      -0.61960000
H       -1.26010000       1.75050000       0.73590000
H       -0.74140000      -0.65760000       0.49420000
H       -1.45320000      -0.02310000      -0.99060000
H        0.20610000       0.96970000      -2.54290000
H        1.88360000       0.44380000      -2.52030000
H       -0.92400000      -2.33610000      -2.60300000
H        0.57000000      -3.14730000      -3.08370000
H        0.08460000      -2.40920000      -0.42350000
H        2.81590000      -2.03030000      -1.77430000
H        2.53350000      -2.15370000      -0.03230000
H        2.19750000      -3.54150000      -1.09410000
