19
Properties=species:S:1:pos:R:3 gdb_52332=T pbc="F F F"
O        0.39210000       0.26550000       0.66120000
C        0.48370000       1.45560000       0.65280000
O        0.67570000       2.15550000      -0.48690000
C        0.85040000       3.56910000      -0.36920000
C        2.30880000       3.93930000      -0.16790000
C        2.58380000       5.46330000      -0.17070000
C        3.57800000       5.66100000       1.00410000
C        3.87440000       4.22060000       1.46060000
O        2.71600000       3.47550000       1.11260000
H        0.40960000       2.10080000       1.54610000
H        0.47460000       3.99750000      -1.30170000
H        0.25560000       3.96410000       0.46450000
H        2.90890000       3.44230000      -0.94690000
H        2.99440000       5.78790000      -1.12930000
H        1.66110000       6.02760000      -0.00300000
H        4.48390000       6.19370000       0.70590000
H        3.11060000       6.22860000       1.81240000
H        4.75830000       3.81800000       0.94070000
H        4.03030000       4.11600000       2.53670000
