14
Properties=species:S:1:pos:R:3 gdb_4272=T pbc="F F F"
N        0.09770000       1.40550000       0.14340000
C       -0.00930000       0.01680000       0.03710000
C       -1.17350000      -0.68660000       0.01120000
C       -1.20400000      -2.14530000      -0.01080000
O       -2.24200000      -2.80120000      -0.02880000
C        0.13090000      -2.76460000      -0.03280000
C        1.25220000      -2.01810000      -0.01180000
N        1.19740000      -0.64230000       0.01360000
H        0.73620000       1.82000000      -0.52580000
H       -0.80200000       1.86320000       0.09080000
H       -2.12140000      -0.16140000      -0.00870000
H        0.18930000      -3.84520000      -0.06700000
H        2.25230000      -2.43510000      -0.01860000
H        2.03420000      -0.11470000       0.20030000
