20
Properties=species:S:1:pos:R:3 gdb_19524=T pbc="F F F"
C        0.17970000       1.47610000      -0.13570000
C       -0.19990000       0.01010000       0.10630000
C        0.57620000      -0.59430000       1.25620000
C        0.75030000      -2.09140000       1.48270000
C        0.49180000      -3.05440000       0.32290000
C        1.74890000      -2.87520000      -0.55650000
O        2.26990000      -1.57480000      -0.26140000
C        1.92300000      -1.24710000       1.06130000
H        1.24100000       1.56270000      -0.38860000
H       -0.40080000       1.90510000      -0.95850000
H       -0.00290000       2.08730000       0.75530000
H       -1.27560000      -0.06590000       0.31200000
H       -0.01450000      -0.55970000      -0.80890000
H        0.49130000      -0.02960000       2.18380000
H        0.66320000      -2.46790000       2.49510000
H        0.39480000      -4.08350000       0.67900000
H       -0.42260000      -2.81130000      -0.22720000
H        2.50160000      -3.64190000      -0.31740000
H        1.54660000      -2.91570000      -1.63090000
H        2.76850000      -1.02190000       1.70500000
