20
Properties=species:S:1:pos:R:3 gdb_74907=T pbc="F F F"
C       -0.25560000       1.56540000       0.20620000
C       -0.03220000       0.11150000      -0.12500000
N       -0.89170000      -0.75300000       0.21540000
C       -0.90800000      -2.15680000      -0.02760000
C       -1.60180000      -2.70130000      -1.25450000
C       -0.11640000      -2.91340000      -1.07650000
C        0.90050000      -2.17560000      -1.92640000
C        1.77050000      -1.24900000      -1.08440000
O        1.14810000       0.00760000      -0.80280000
H        0.55520000       1.93930000       0.83980000
H       -0.24830000       2.16550000      -0.70960000
H       -1.20970000       1.68420000       0.71670000
H       -1.12000000      -2.70420000       0.88780000
H       -2.27840000      -3.54150000      -1.14330000
H       -1.90650000      -1.97300000      -1.99970000
H        0.19090000      -3.91270000      -0.77840000
H        1.54750000      -2.89450000      -2.44150000
H        0.42050000      -1.57650000      -2.70860000
H        2.05490000      -1.73740000      -0.14310000
H        2.68640000      -0.97330000      -1.61530000
