17
Properties=species:S:1:pos:R:3 gdb_51463=T pbc="F F F"
O        0.28810000       0.11970000      -0.23120000
C        0.44480000       1.29150000      -0.39290000
O        0.92250000       2.09980000       0.58050000
C        0.99900000       3.47780000       0.29480000
C        2.25030000       4.20000000       0.67590000
C        3.50510000       3.35720000       0.92120000
C        3.80210000       2.73980000      -0.42700000
C        2.93400000       3.13130000      -1.36200000
C        1.89020000       4.03900000      -0.80450000
H        0.22210000       1.83860000      -1.32700000
H        0.05740000       3.99140000       0.46970000
H        2.14600000       5.14910000       1.18760000
H        4.33590000       3.97830000       1.27720000
H        3.33340000       2.58860000       1.68500000
H        4.61210000       2.03560000      -0.57740000
H        2.94050000       2.82130000      -2.40030000
H        1.48810000       4.84780000      -1.40510000
