18
Properties=species:S:1:pos:R:3 gdb_13683=T pbc="F F F"
C        0.19000000       1.49060000      -0.31070000
C        0.02460000       0.03430000       0.03930000
O        1.21440000      -0.74360000       0.22870000
C        0.33520000      -0.57090000       1.34650000
C        0.88930000       0.16880000       2.54140000
C        1.96380000      -0.66870000       3.26340000
C        2.61420000       0.10080000       4.38820000
O        2.65130000      -0.25140000       5.53870000
H        0.96050000       1.97420000       0.29270000
H        0.47620000       1.59150000      -1.36270000
H       -0.75510000       2.02610000      -0.16910000
H       -0.73280000      -0.48060000      -0.55650000
H       -0.21330000      -1.47950000       1.60810000
H        1.32080000       1.12460000       2.22920000
H        0.06730000       0.39430000       3.23230000
H        1.54980000      -1.59770000       3.66610000
H        2.74300000      -0.92420000       2.53190000
H        3.07560000       1.06690000       4.07160000
