21
Properties=species:S:1:pos:R:3 gdb_104817=T pbc="F F F"
C        0.23630000       1.48810000      -0.04340000
C        0.02920000      -0.02830000      -0.01270000
C       -1.43520000      -0.47730000      -0.04530000
C       -1.56750000      -2.00030000       0.05570000
C       -3.00750000      -2.51810000       0.09580000
O       -2.24710000       0.21500000       0.96070000
C       -3.09200000       0.86610000      -0.00750000
C       -2.30530000       0.18940000      -1.13160000
O       -2.33880000       0.17580000      -2.32470000
H        1.29940000       1.73190000       0.03640000
H       -0.13220000       1.92740000      -0.97670000
H       -0.28470000       1.96430000       0.79140000
H        0.53760000      -0.49900000      -0.86270000
H        0.48330000      -0.44510000       0.89500000
H       -1.03040000      -2.43520000      -0.79580000
H       -1.03440000      -2.31980000       0.95980000
H       -3.55310000      -2.07260000       0.93190000
H       -3.54560000      -2.28800000      -0.83000000
H       -3.02130000      -3.60440000       0.22180000
H       -4.14550000       0.56880000       0.07080000
H       -3.01740000       1.96070000       0.02250000
