20
Properties=species:S:1:pos:R:3 gdb_68230=T pbc="F F F"
C       -0.14580000       1.53900000      -0.04230000
C        0.06620000       0.04660000       0.03260000
C        1.12680000      -0.68080000      -0.83290000
N        1.23780000      -1.72560000       0.26560000
C        0.81360000      -0.62740000       1.20910000
C        0.12650000      -2.63920000      -0.00630000
C       -1.01720000      -2.86190000       0.95050000
C       -1.20250000      -1.97140000      -0.26170000
O       -1.22120000      -0.56930000      -0.12420000
H        0.79800000       2.06940000       0.11450000
H       -0.54870000       1.82120000      -1.01980000
H       -0.85940000       1.86060000       0.72240000
H        0.82850000      -1.06580000      -1.81090000
H        2.06080000      -0.11830000      -0.91440000
H        1.70380000      -0.07280000       1.52100000
H        0.24730000      -0.91960000       2.09330000
H        0.43100000      -3.47440000      -0.63090000
H       -1.48790000      -3.83900000       0.91470000
H       -1.01350000      -2.41250000       1.93530000
H       -1.86750000      -2.30020000      -1.05420000
