16
Properties=species:S:1:pos:R:3 gdb_42589=T pbc="F F F"
O        0.04420000      -0.01490000       0.04910000
C       -0.00200000       1.18020000       0.00550000
C       -1.19830000       2.14770000       0.04200000
C       -0.83720000       2.99340000       1.27540000
C        0.62990000       3.20730000       1.05710000
C        1.12540000       2.23760000      -0.03970000
C        0.69330000       2.98270000      -1.32960000
C       -0.68030000       3.38420000      -0.78690000
N       -0.36790000       4.16300000       0.48480000
H       -2.19880000       1.75130000      -0.09490000
H       -1.36930000       3.07550000       2.21590000
H        1.28050000       3.59760000       1.82790000
H        2.14440000       1.87040000       0.04020000
H        1.31310000       3.85380000      -1.55660000
H        0.64600000       2.32540000      -2.20440000
H       -1.37720000       3.90080000      -1.44290000
