17
Properties=species:S:1:pos:R:3 gdb_124645=T pbc="F F F"
C       -0.13830000       1.49610000       0.09390000
C       -0.02130000      -0.01690000      -0.04500000
C        0.82500000      -0.45570000      -1.22900000
O        0.64530000      -0.57290000       1.13300000
C       -0.05370000      -0.73820000       2.23870000
C        0.38660000      -1.22660000       3.45040000
N       -0.69630000      -1.22330000       4.27340000
N       -1.73280000      -0.80120000       3.73700000
O       -1.33200000      -0.44410000       2.29770000
H        0.85270000       1.94910000       0.19400000
H       -0.61950000       1.91160000      -0.79670000
H       -0.74260000       1.76520000       0.96270000
H       -1.01670000      -0.46750000      -0.10000000
H        1.83580000      -0.04350000      -1.15370000
H        0.89660000      -1.54520000      -1.27380000
H        0.37460000      -0.09820000      -2.15910000
H        1.36200000      -1.56100000       3.75270000
