14
Properties=species:S:1:pos:R:3 gdb_5207=T pbc="F F F"
C       -0.06770000       1.47210000       0.01070000
C       -0.01260000       0.01920000       0.00280000
C        0.04320000      -1.18700000      -0.00370000
C        0.11030000      -2.59230000      -0.01140000
C        1.16750000      -3.48240000      -0.02240000
N        0.72260000      -4.77690000      -0.02640000
C       -0.59060000      -4.69450000      -0.01800000
N       -1.01560000      -3.40360000      -0.00880000
H        0.94110000       1.89920000       0.00330000
H       -0.59700000       1.85930000      -0.86750000
H       -0.58020000       1.85040000       0.90260000
H        2.21900000      -3.24070000      -0.02750000
H       -1.27780000      -5.52740000      -0.01820000
H       -1.96640000      -3.07380000      -0.00140000
