19
Properties=species:S:1:pos:R:3 gdb_41180=T pbc="F F F"
C        0.04240000       1.64200000      -0.28120000
C        1.59370000       1.36470000       0.04900000
C        1.01870000       0.26330000       0.99370000
O        1.00630000      -1.22600000       1.19800000
C       -0.46900000      -1.10650000       0.99210000
C       -1.13780000      -0.79330000       2.32690000
C       -0.40010000       0.34610000       2.98230000
C        0.64530000       0.86000000       2.33830000
C       -0.12910000       0.11770000       0.06250000
H       -0.39830000       2.33210000       0.43840000
H       -0.19800000       1.95400000      -1.29940000
H        2.10630000       0.97200000      -0.83080000
H        2.17790000       2.17380000       0.49820000
H       -0.86780000      -2.00150000       0.50850000
H       -2.19810000      -0.55270000       2.17180000
H       -1.11340000      -1.68290000       2.97040000
H       -0.71960000       0.69750000       3.95900000
H        1.23620000       1.68050000       2.73510000
H        0.26690000      -0.38580000      -0.82580000
