18
Properties=species:S:1:pos:R:3 gdb_55259=T pbc="F F F"
C        0.25090000       0.64250000       0.99500000
C       -0.10230000       0.13560000      -0.38390000
O        0.60230000       0.31120000      -1.35040000
C       -1.44180000      -0.62100000      -0.49800000
C       -1.64640000      -1.31170000      -1.86380000
O       -1.74480000      -2.71460000      -1.52610000
C       -1.64810000      -2.78960000      -0.17560000
C       -1.72980000      -4.16680000       0.38780000
N       -1.50190000      -1.71290000       0.49080000
H        1.21310000       1.15470000       0.96950000
H       -0.52650000       1.32760000       1.35280000
H        0.27260000      -0.19600000       1.69680000
H       -2.23270000       0.10870000      -0.27590000
H       -2.56750000      -1.01660000      -2.37140000
H       -0.79200000      -1.15900000      -2.52640000
H       -2.67740000      -4.63520000       0.10450000
H       -0.92570000      -4.78760000      -0.01930000
H       -1.64940000      -4.12680000       1.47330000
