19
Properties=species:S:1:pos:R:3 gdb_115450=T pbc="F F F"
C        0.09350000       1.44130000       0.46230000
C       -0.05180000      -0.05920000       0.20160000
C       -1.45040000      -0.44890000      -0.28040000
C       -1.67850000      -1.95970000      -0.37800000
O       -2.13830000      -2.30380000       0.92900000
C       -2.79910000      -1.17300000       1.45770000
O       -2.46330000      -0.05620000       0.66180000
C       -4.31500000      -1.37390000       1.37120000
O       -5.05100000      -1.34900000       2.31920000
H        1.09590000       1.68080000       0.82830000
H       -0.07540000       2.01980000      -0.45290000
H       -0.63340000       1.77580000       1.20690000
H        0.66960000      -0.38140000      -0.56060000
H        0.17740000      -0.62900000       1.11070000
H       -1.68340000       0.06220000      -1.22080000
H       -2.42930000      -2.20840000      -1.13960000
H       -0.76750000      -2.53030000      -0.57390000
H       -2.50170000      -1.04110000       2.50620000
H       -4.67630000      -1.55650000       0.33410000
