16
Properties=species:S:1:pos:R:3 gdb_75730=T pbc="F F F"
C       -0.10780000       1.56710000       0.02240000
C        0.05850000       0.04440000       0.00880000
C        0.85040000      -0.48330000      -1.20430000
O        0.59970000      -0.20510000      -2.35850000
C        1.93150000      -1.34200000      -0.71910000
C        1.94170000      -1.37900000       0.64210000
N        2.71620000      -2.01350000       1.53630000
C        0.83980000      -0.51070000       1.18360000
O        0.67500000      -0.31630000       2.36650000
H        0.86510000       2.06810000       0.04850000
H       -0.62790000       1.88450000      -0.88400000
H       -0.67930000       1.88390000       0.89820000
H       -0.93460000      -0.42500000       0.00080000
H        2.61200000      -1.84940000      -1.39090000
H        3.53480000      -2.53250000       1.27410000
H        2.55800000      -1.80120000       2.50960000
