22
Properties=species:S:1:pos:R:3 gdb_60436=T pbc="F F F"
C       -0.11760000       1.29800000      -0.46230000
C       -0.01380000      -0.12110000       0.09400000
O        0.56250000      -0.12340000       1.40270000
C       -1.35870000      -0.85640000       0.07730000
C       -1.23190000      -2.31160000       0.54670000
N       -2.50370000      -3.01680000       0.60010000
C       -3.08250000      -3.54130000      -0.51780000
C       -4.41240000      -4.24790000      -0.29860000
O       -2.56590000      -3.45820000      -1.61930000
H        0.85440000       1.79660000      -0.41620000
H       -0.45820000       1.29130000      -1.50250000
H       -0.83580000       1.89160000       0.11820000
H        0.70320000      -0.68860000      -0.51320000
H        0.02510000       0.45650000       1.95420000
H       -2.07090000      -0.31950000       0.72120000
H       -1.77330000      -0.84960000      -0.93600000
H       -0.58110000      -2.85680000      -0.14380000
H       -0.77360000      -2.34260000       1.53790000
H       -2.98680000      -3.08140000       1.47960000
H       -5.17280000      -3.76850000      -0.92070000
H       -4.31910000      -5.28270000      -0.63870000
H       -4.74980000      -4.24530000       0.74130000
