15
Properties=species:S:1:pos:R:3 gdb_29826=T pbc="F F F"
C       -0.01740000       1.45180000      -0.00940000
N       -0.03090000      -0.00660000       0.00340000
C       -1.20030000      -0.70840000      -0.10970000
C       -1.16630000      -2.07200000      -0.09300000
O       -2.31160000      -2.79190000      -0.20350000
N       -0.00540000      -2.75730000       0.03280000
C        1.10800000      -2.08900000       0.14050000
C        1.21530000      -0.63600000       0.13740000
O        2.24920000       0.01210000       0.23720000
H        0.60370000       1.80780000      -0.83490000
H       -1.03720000       1.82090000      -0.11780000
H        0.42350000       1.82490000       0.91830000
H       -2.11790000      -0.14510000      -0.20930000
H       -2.04610000      -3.71970000      -0.16730000
H        2.03970000      -2.63860000       0.24140000
