16
Properties=species:S:1:pos:R:3 gdb_17408=T pbc="F F F"
C       -0.07110000       1.52130000      -0.06910000
C       -0.03940000       0.02330000       0.07830000
O        1.25290000      -0.61460000      -0.04670000
C        0.60080000      -0.64680000       1.20820000
C        1.28450000      -0.12010000       2.49680000
C        0.89620000      -1.45800000       3.15380000
O       -0.52740000      -1.57480000       3.05990000
C        0.26050000      -1.95110000       1.91880000
H        0.74230000       1.98680000       0.49320000
H        0.03000000       1.80830000      -1.12090000
H       -1.02340000       1.91810000       0.29880000
H       -0.83650000      -0.51570000      -0.43680000
H        2.36070000      -0.00760000       2.34150000
H        0.87330000       0.77430000       2.97020000
H        1.39220000      -1.99730000       3.95150000
H        0.13830000      -2.94890000       1.51440000
