25
Properties=species:S:1:pos:R:3 gdb_116291=T pbc="F F F"
C       -0.07290000       1.73710000      -0.18240000
C       -0.27990000       0.22120000      -0.26550000
C        0.71250000      -0.48320000      -1.19420000
C        2.19570000      -0.41810000      -0.77290000
C        2.89340000      -1.55710000      -1.56290000
C        1.75140000      -2.47400000      -2.08600000
C        0.47830000      -1.99430000      -1.36360000
O        0.35860000      -2.56140000      -0.06300000
C       -0.15160000      -3.87130000      -0.04440000
H        0.91070000       1.98720000       0.22830000
H       -0.14620000       2.20450000      -1.17140000
H       -0.82650000       2.20290000       0.46040000
H       -0.20590000      -0.22410000       0.73170000
H       -1.30020000       0.01590000      -0.61590000
H        0.62070000      -0.04670000      -2.20020000
H        2.64690000       0.55860000      -0.96610000
H        2.26830000      -0.60360000       0.30400000
H        3.47970000      -1.16030000      -2.39690000
H        3.59110000      -2.10720000      -0.92630000
H        1.61860000      -2.35210000      -3.16650000
H        1.94430000      -3.53570000      -1.91120000
H       -0.43620000      -2.21170000      -1.93760000
H       -1.14740000      -3.92590000      -0.51290000
H        0.50430000      -4.59120000      -0.55710000
H       -0.23930000      -4.17070000       1.00340000
