16
Properties=species:S:1:pos:R:3 gdb_96786=T pbc="F F F"
C        0.02000000       1.44470000       0.06640000
N        0.09500000      -0.00050000       0.06990000
C        0.56540000      -0.62640000      -0.93120000
N        1.07350000      -0.09820000      -2.14490000
C        1.53220000      -1.10190000      -2.96790000
O        2.08120000      -0.99560000      -4.04350000
C        1.23020000      -2.38500000      -2.24110000
N        1.51540000      -3.54240000      -2.89030000
C        0.67930000      -2.08190000      -1.04470000
H        0.84280000       1.86420000       0.66070000
H        0.04310000       1.91870000      -0.92690000
H       -0.90970000       1.75380000       0.55510000
H        1.23450000       0.87420000      -2.34080000
H        2.10710000      -3.44290000      -3.70230000
H        1.59610000      -4.40110000      -2.37300000
H        0.34030000      -2.74200000      -0.26150000
