16
Properties=species:S:1:pos:R:3 gdb_87027=T pbc="F F F"
C        0.26310000       1.31130000      -0.31520000
C        0.42170000      -0.13330000       0.06650000
O        1.69440000      -0.54970000       0.57480000
C        0.57530000      -0.59990000       1.47310000
C        0.59250000       0.38520000       2.53810000
N        0.63540000       1.20710000       3.34820000
C        0.09920000      -1.97930000       1.86800000
N        0.57250000      -2.96460000       1.03180000
N       -0.70830000      -2.06480000       2.84890000
H        0.69510000       1.97210000       0.43850000
H        0.75780000       1.49750000      -1.27370000
H       -0.79850000       1.55160000      -0.42920000
H       -0.03000000      -0.86210000      -0.60640000
H        1.44260000      -2.76110000       0.56060000
H        0.45340000      -3.91790000       1.33660000
H       -0.99490000      -3.02860000       3.02670000
