20
Properties=species:S:1:pos:R:3 gdb_113458=T pbc="F F F"
C        0.28640000       1.50020000       0.16440000
C       -0.28410000       0.12620000      -0.20360000
C        0.42380000      -0.49550000      -1.38540000
N        1.72930000      -1.14460000      -1.10090000
C        0.59460000      -1.95260000      -1.54320000
C        0.07950000      -3.16810000      -0.72730000
C        0.05410000      -3.95170000      -2.05330000
O       -0.81360000      -3.24600000      -2.94840000
C        0.54080000      -2.78810000      -2.81330000
H        1.34870000       1.41910000       0.41440000
H        0.18940000       2.20640000      -0.66800000
H       -0.23480000       1.92850000       1.02580000
H       -0.19830000      -0.55190000       0.65250000
H       -1.35320000       0.21090000      -0.43690000
H        0.35620000       0.07840000      -2.31060000
H        2.38040000      -0.99430000      -1.86890000
H        0.83690000      -3.52020000      -0.02300000
H       -0.88750000      -3.07240000      -0.22820000
H        0.19250000      -5.01240000      -2.22490000
H        1.14070000      -2.71460000      -3.71470000
