21
Properties=species:S:1:pos:R:3 gdb_116306=T pbc="F F F"
C        0.15290000       1.21780000      -0.44590000
O        0.04270000      -0.16620000      -0.20990000
C       -1.26660000      -0.59410000       0.13870000
C       -2.18010000      -0.76120000      -1.09490000
O       -2.16130000      -2.13740000      -1.46220000
C       -1.23950000      -2.83860000      -0.63290000
C       -1.17970000      -2.03350000       0.66950000
C        0.01850000      -2.32680000       1.55680000
O       -0.09900000      -3.68140000       1.97870000
H        1.20310000       1.42600000      -0.66430000
H       -0.45360000       1.54920000      -1.30180000
H       -0.15110000       1.80320000       0.43630000
H       -1.69490000       0.10260000       0.87400000
H       -3.21540000      -0.46870000      -0.87490000
H       -1.82080000      -0.14140000      -1.92710000
H       -1.60740000      -3.85770000      -0.49730000
H       -0.24410000      -2.88420000      -1.10210000
H       -2.09330000      -2.23590000       1.24120000
H        0.94520000      -2.15790000       0.99440000
H        0.02460000      -1.63980000       2.41820000
H        0.69770000      -3.91330000       2.46440000
