22
Properties=species:S:1:pos:R:3 gdb_8417=T pbc="F F F"
C        0.14250000       1.63600000      -0.40850000
C        0.25040000       0.14190000      -0.17350000
C        1.48440000      -0.69580000      -0.36050000
C        2.73680000       0.00300000       0.18970000
C        2.10680000      -0.01540000       1.63010000
C        2.78540000      -1.08680000       2.49160000
C        2.02840000       1.29660000       2.41280000
C        0.81180000      -0.59430000       1.01870000
H        1.08370000       2.16390000      -0.24280000
H       -0.15600000       1.82900000      -1.44520000
H       -0.61340000       2.08980000       0.24220000
H       -0.63140000      -0.38530000      -0.53810000
H        1.50460000      -1.53830000      -1.04210000
H        3.64200000      -0.60510000       0.12310000
H        2.95790000       0.98830000      -0.23370000
H        3.80270000      -0.78290000       2.76380000
H        2.22690000      -1.25580000       3.42010000
H        2.84660000      -2.04260000       1.96090000
H        1.56350000       2.10190000       1.84180000
H        1.44430000       1.16270000       3.33100000
H        3.03010000       1.63140000       2.70830000
H        0.21050000      -1.34300000       1.52630000
