20
Properties=species:S:1:pos:R:3 gdb_81620=T pbc="F F F"
C        0.00430000       1.77050000       0.01290000
C        0.03140000       0.25390000      -0.03850000
C        0.78920000      -0.56670000      -1.11810000
C        2.06410000      -0.15130000      -0.35300000
N        1.10300000      -0.49880000       0.80000000
C        0.75530000      -1.72270000      -0.08570000
C       -0.48270000      -2.54290000       0.25830000
C       -0.38350000      -3.14010000       1.65060000
O       -1.29720000      -3.20170000       2.43020000
H        0.93010000       2.25360000      -0.30510000
H       -0.80070000       2.14050000      -0.63130000
H       -0.21370000       2.09810000       1.03480000
H       -0.97040000      -0.10610000       0.20220000
H        0.61660000      -0.61050000      -2.20010000
H        2.93060000      -0.81610000      -0.40740000
H        2.38010000       0.89020000      -0.37240000
H        1.61710000      -2.39820000      -0.13800000
H       -1.43190000      -2.01080000       0.18290000
H       -0.52640000      -3.38490000      -0.44890000
H        0.62110000      -3.54720000       1.90840000
