17
Properties=species:S:1:pos:R:3 gdb_52912=T pbc="F F F"
C        0.02060000       1.50780000      -0.03100000
C        0.03650000       0.05300000      -0.01880000
C        0.05260000      -1.15010000      -0.01150000
C        0.06550000      -2.60420000       0.00380000
C        0.13150000      -3.24020000       1.44520000
N       -1.33150000      -3.42730000       1.40790000
C       -1.36290000      -3.26930000      -0.05870000
C        1.03570000      -3.13890000      -0.95000000
N        1.79510000      -3.58900000      -1.69600000
H        0.74200000       1.90190000      -0.75470000
H       -0.96890000       1.89050000      -0.30300000
H        0.27740000       1.91480000       0.95280000
H        0.72400000      -4.16380000       1.44200000
H        0.49160000      -2.57280000       2.23180000
H       -1.65940000      -4.32240000       1.75100000
H       -2.16000000      -2.62430000      -0.43640000
H       -1.33810000      -4.20390000      -0.63300000
