17
Properties=species:S:1:pos:R:3 gdb_8903=T pbc="F F F"
C       -0.32980000       1.36440000      -0.09240000
C        0.13730000      -0.07540000       0.19540000
C        0.69990000      -0.67930000      -1.01510000
N        1.14020000      -1.15850000      -1.97020000
C        1.15520000      -0.17850000       1.36730000
O        2.26940000       0.67710000       1.21470000
C        0.47880000       0.03850000       2.73110000
O       -0.61770000      -0.83190000       2.94840000
H        0.51040000       1.99460000      -0.39690000
H       -1.06010000       1.37320000      -0.90430000
H       -0.80530000       1.80070000       0.79010000
H       -0.72890000      -0.67740000       0.49440000
H        1.57410000      -1.19180000       1.35200000
H        1.97400000       1.58900000       1.31320000
H        1.24700000      -0.05430000       3.51060000
H        0.07420000       1.05580000       2.79460000
H       -0.27320000      -1.71790000       3.10080000
