18
Properties=species:S:1:pos:R:3 gdb_107357=T pbc="F F F"
C       -0.21700000       1.51710000      -0.09960000
C        0.14250000       0.03520000       0.06090000
C        0.78190000      -0.54620000      -1.16980000
C        0.00740000      -1.06110000      -2.36030000
C        0.87680000      -2.00100000      -1.53440000
N        2.24090000      -2.14770000      -1.93300000
C        2.89020000      -0.92850000      -1.99040000
O        3.98490000      -0.68940000      -2.41340000
O        2.05070000       0.02610000      -1.46500000
H        0.67480000       2.10870000      -0.32310000
H       -0.93150000       1.66290000      -0.91610000
H       -0.66570000       1.90850000       0.81770000
H        0.82990000      -0.09570000       0.90510000
H       -0.75550000      -0.55080000       0.28860000
H       -1.06670000      -1.14950000      -2.23630000
H        0.34140000      -0.79620000      -3.35770000
H        0.44520000      -2.79220000      -0.93180000
H        2.56630000      -2.88120000      -2.54140000
