16
Properties=species:S:1:pos:R:3 gdb_30369=T pbc="F F F"
C        0.04280000       1.37120000       0.14870000
N        0.10160000      -0.07570000       0.09510000
C        0.55560000      -0.62050000      -0.96690000
N        1.07980000       0.02600000      -2.08160000
C        0.62880000      -2.08220000      -1.05720000
C        1.29180000      -2.94850000      -1.87360000
N        1.00340000      -4.25150000      -1.50030000
C        0.19860000      -4.11050000      -0.49580000
O       -0.07970000      -2.83500000      -0.16290000
H        1.04540000       1.82460000       0.18130000
H       -0.49040000       1.81590000      -0.70970000
H       -0.48620000       1.67800000       1.05420000
H        0.89170000       1.01440000      -2.14470000
H        0.98050000      -0.45350000      -2.96350000
H        1.97320000      -2.73070000      -2.68070000
H       -0.27170000      -4.87870000       0.09770000
