14
Properties=species:S:1:pos:R:3 gdb_839=T pbc="F F F"
C       -0.01930000       1.51500000       0.02190000
C        0.00690000       0.01690000       0.01150000
C       -0.09570000      -0.79250000      -1.09040000
N       -0.02740000      -2.11040000      -0.66390000
C        0.11730000      -2.13130000       0.69040000
O        0.20310000      -3.34560000       1.29410000
C        0.14420000      -0.83980000       1.15630000
H        0.90070000       1.93590000       0.44540000
H       -0.12790000       1.91290000      -0.99150000
H       -0.85190000       1.90420000       0.62050000
H       -0.21080000      -0.55380000      -2.13500000
H       -0.07390000      -2.93210000      -1.23970000
H        0.30120000      -3.20250000       2.23990000
H        0.24860000      -0.53410000       2.18660000
