17
Properties=species:S:1:pos:R:3 gdb_97171=T pbc="F F F"
C        0.09530000       1.44840000      -0.26890000
N       -0.00500000       0.02000000      -0.03410000
C       -1.11390000      -0.58270000       0.13690000
N       -1.09680000      -1.97100000       0.22530000
C       -2.07090000      -2.75800000       0.94630000
C       -3.39780000      -2.08610000       1.03930000
C       -3.59790000      -0.81780000       0.67010000
C       -2.49980000       0.03880000       0.18760000
O       -2.68940000       1.19850000      -0.12580000
H        1.15480000       1.72120000      -0.24580000
H       -0.30940000       1.73220000      -1.24770000
H       -0.43960000       2.04970000       0.47480000
H       -0.15060000      -2.32850000       0.22260000
H       -2.19770000      -3.72890000       0.44490000
H       -1.73790000      -3.00140000       1.97340000
H       -4.21100000      -2.68690000       1.43740000
H       -4.56990000      -0.33980000       0.73680000
