16
Properties=species:S:1:pos:R:3 gdb_50171=T pbc="F F F"
O       -0.14690000      -0.08030000      -0.16300000
C       -0.03870000       1.08850000       0.09480000
C        1.22230000       1.90860000      -0.01060000
O        2.43630000       1.17740000      -0.40440000
C        2.35010000       1.89200000      -1.66240000
C        2.86590000       2.90130000      -2.74360000
N        1.30380000       3.03880000      -2.76600000
C        1.28740000       1.50830000      -2.70740000
C        1.46550000       2.97080000      -1.17650000
H       -0.89910000       1.69640000       0.46030000
H        1.37210000       2.41870000       0.94960000
H        3.38490000       3.79540000      -2.39570000
H        3.25370000       2.52990000      -3.69540000
H        1.62440000       1.03590000      -3.63150000
H        0.34000000       1.09280000      -2.37210000
H        1.87100000       3.90530000      -0.79300000
