16
Properties=species:S:1:pos:R:3 gdb_85165=T pbc="F F F"
N        0.02040000       1.20260000       0.35440000
C        0.09620000      -0.06740000      -0.11210000
O        1.10880000      -0.56940000      -0.57790000
C       -1.21010000      -0.83920000      -0.02910000
C       -1.12590000      -2.38820000       0.20020000
O        0.09740000      -2.79960000       0.74420000
C       -2.19710000      -2.27440000       1.32640000
C       -2.02500000      -0.75520000       1.27250000
O       -2.30400000       0.16600000       1.98920000
H        0.87690000       1.72990000       0.42370000
H       -0.76850000       1.47300000       0.92560000
H       -1.83750000      -0.57390000      -0.88790000
H       -1.42270000      -2.99270000      -0.66520000
H        0.78980000      -2.38070000       0.20760000
H       -3.20190000      -2.58130000       1.01950000
H       -1.93790000      -2.75880000       2.27010000
