18
Properties=species:S:1:pos:R:3 gdb_56781=T pbc="F F F"
O        0.26510000       1.52700000      -0.09410000
C        0.07420000       0.12540000       0.01100000
C        0.55380000      -0.57210000      -1.20500000
N        0.95820000      -1.11060000      -2.14420000
C        0.70360000      -0.45590000       1.25110000
C        2.16160000      -0.83190000       1.34540000
C        1.12060000      -1.88850000       1.59570000
C        0.53910000      -1.73660000       3.00700000
C        0.12250000      -0.26840000       2.66100000
H        1.21270000       1.69530000      -0.02690000
H       -1.01360000      -0.00650000       0.05580000
H        2.68700000      -0.92650000       0.40010000
H        2.76760000      -0.45120000       2.16470000
H        1.06360000      -2.77230000       0.97200000
H       -0.32480000      -2.37870000       3.18880000
H        1.25040000      -1.86720000       3.82830000
H        0.56850000       0.53200000       3.25860000
H       -0.96190000      -0.13390000       2.65640000
