21
Properties=species:S:1:pos:R:3 gdb_42107=T pbc="F F F"
C        0.05990000       1.53560000       0.07700000
C        1.53390000       1.98890000      -0.02710000
C        2.53040000       1.54180000       1.07710000
C        2.42030000       2.18290000       2.44080000
C        1.60190000       1.75520000       3.42060000
C        0.66870000       0.73210000       3.11930000
C       -0.04960000      -0.02490000       2.50810000
C       -0.80920000      -0.55760000       1.38380000
C       -0.18380000       0.00060000       0.07110000
H       -0.39300000       1.97800000       0.96880000
H       -0.46360000       1.97850000      -0.77830000
H        1.93620000       1.61950000      -0.98020000
H        1.55100000       3.08350000      -0.09830000
H        2.45310000       0.45480000       1.19730000
H        3.53790000       1.74150000       0.69360000
H        3.08400000       3.01870000       2.65200000
H        1.61160000       2.22250000       4.40050000
H       -0.81710000      -1.65370000       1.35840000
H       -1.85920000      -0.24520000       1.46130000
H       -0.84240000      -0.27620000      -0.75960000
H        0.76150000      -0.52590000      -0.10230000
