21
Properties=species:S:1:pos:R:3 gdb_36650=T pbc="F F F"
C       -0.05480000      -1.18240000      -0.01330000
C        0.01270000       0.01030000       0.12250000
C        0.13030000       1.45530000       0.27090000
C        1.45990000       2.01410000      -0.28330000
C        1.54250000       3.51870000      -0.13160000
C        1.90920000       4.24990000       1.13600000
C        3.02640000       3.53250000       1.90760000
C        3.94090000       3.62360000       0.64310000
C        2.80710000       4.33460000      -0.10890000
H       -0.12740000      -2.23530000      -0.12800000
H       -0.71110000       1.94440000      -0.23780000
H        0.03990000       1.72690000       1.33040000
H        2.28810000       1.51640000       0.22840000
H        1.54640000       1.74240000      -1.34190000
H        0.74880000       4.03770000      -0.66900000
H        1.26000000       5.00940000       1.55620000
H        3.41370000       4.13040000       2.73510000
H        2.79590000       2.53220000       2.28900000
H        4.80110000       4.27530000       0.81030000
H        4.30250000       2.68390000       0.21350000
H        2.94620000       5.16680000      -0.78940000
