21
Properties=species:S:1:pos:R:3 gdb_41977=T pbc="F F F"
C        0.02840000       1.56610000       0.02980000
O        1.39020000       1.96500000      -0.16670000
C        2.00260000       0.98690000      -0.97260000
C        2.58780000      -0.24200000      -0.31880000
C        2.80280000      -0.44230000       1.17210000
C        1.59700000      -0.07180000       2.05330000
C        0.27430000      -0.55910000       1.44540000
C        0.03670000       0.02220000       0.03970000
C        1.19410000      -0.28020000      -0.92880000
H       -0.32040000       2.01360000       0.96610000
H       -0.59610000       1.94820000      -0.79200000
H        2.44480000       1.37790000      -1.88470000
H        3.35220000      -0.71760000      -0.93070000
H        3.03260000      -1.50590000       1.32390000
H        3.69070000       0.11130000       1.50020000
H        1.73180000      -0.50780000       3.04930000
H        1.56110000       1.01300000       2.18780000
H        0.27980000      -1.65530000       1.38030000
H       -0.56200000      -0.28780000       2.10090000
H       -0.90370000      -0.36740000      -0.36170000
H        0.99910000      -0.87640000      -1.81230000
