19
Properties=species:S:1:pos:R:3 gdb_79764=T pbc="F F F"
O        0.31010000       1.28320000      -0.44850000
C        0.05480000      -0.05660000      -0.04760000
C        0.64250000      -0.45310000       1.30170000
C       -0.10310000      -0.02040000       2.54930000
C       -1.39300000       0.77090000       2.37840000
C       -2.16250000       0.00200000       1.31270000
C       -1.60300000      -1.40450000       1.20650000
C       -0.29480000      -1.41870000       1.99210000
C       -1.41860000      -0.43060000       0.06400000
H       -0.08020000       1.86410000       0.21210000
H        0.52000000      -0.66420000      -0.83330000
H        1.71850000      -0.56530000       1.37540000
H        0.48750000       0.13670000       3.44530000
H       -1.95760000       0.77100000       3.31870000
H       -1.22420000       1.82380000       2.11640000
H       -3.22830000       0.17710000       1.21410000
H       -2.22670000      -2.28600000       1.13960000
H        0.04320000      -2.31070000       2.50270000
H       -1.99090000      -0.52500000      -0.85210000
