21
Properties=species:S:1:pos:R:3 gdb_71873=T pbc="F F F"
C        0.11430000       1.52040000       0.06730000
C       -0.01210000       0.00590000       0.05660000
C        0.14010000      -0.66160000      -1.38040000
C       -1.33000000      -1.21950000      -1.35200000
C       -1.55140000      -2.67440000      -0.78360000
C       -1.04860000      -2.05930000       0.51030000
C        0.14240000      -2.12350000       1.11280000
C        0.75750000      -0.72820000       1.19240000
C       -1.41860000      -0.64170000       0.09280000
H        1.15040000       1.83200000      -0.11280000
H       -0.50740000       1.98190000      -0.70760000
H       -0.19280000       1.93670000       1.03390000
H        0.26740000       0.09120000      -2.16270000
H        0.93600000      -1.40310000      -1.48630000
H       -1.98090000      -0.90830000      -2.17220000
H       -2.62130000      -2.91040000      -0.81110000
H       -0.98080000      -3.51100000      -1.19630000
H        0.72820000      -3.02680000       1.24780000
H        1.83810000      -0.76840000       1.00490000
H        0.62760000      -0.21720000       2.15820000
H       -2.30210000      -0.15790000       0.51370000
