15
Properties=species:S:1:pos:R:3 gdb_47995=T pbc="F F F"
O       -0.11490000      -0.03090000       0.41720000
C        0.01400000       1.07240000      -0.06490000
C        1.23170000       1.83420000      -0.05450000
C        2.23510000       2.50970000      -0.06780000
C        3.43010000       3.28420000      -0.06240000
C        3.80460000       4.12140000      -1.27240000
C        3.36150000       4.82900000      -0.01880000
C        2.10130000       5.50500000       0.03800000
C        1.05060000       6.08610000       0.09600000
H       -0.83230000       1.58690000      -0.56490000
H        4.25690000       2.85790000       0.49710000
H        4.85440000       4.16370000      -1.53780000
H        3.11300000       4.11370000      -2.10520000
H        4.14960000       5.27640000       0.57950000
H        0.12070000       6.59660000       0.14620000
