12
Properties=species:S:1:pos:R:3 gdb_20507=T pbc="F F F"
C       -0.03920000       1.44650000       0.01020000
C        0.01010000      -0.00520000       0.00220000
C        0.05380000      -1.20880000      -0.00430000
C        0.07540000      -2.62050000      -0.01180000
N        1.19250000      -3.35550000      -0.02230000
N        0.68800000      -4.57780000      -0.02560000
N       -0.63750000      -4.63960000      -0.01800000
N       -1.04860000      -3.40360000      -0.00920000
H        0.96900000       1.87350000       0.00270000
H       -0.57300000       1.82650000      -0.86760000
H       -0.55590000       1.81740000       0.90210000
H        1.26590000      -5.40540000      -0.03330000
