20
Properties=species:S:1:pos:R:3 gdb_94949=T pbc="F F F"
C        0.36540000       1.51820000      -0.16650000
C       -0.07070000       0.07050000       0.09140000
C        0.37430000      -0.89500000      -1.04720000
C        1.69080000      -1.54120000      -0.54900000
N        1.50130000      -1.59420000       0.89660000
C        0.59940000      -0.50900000       1.36880000
C       -0.14520000      -1.55620000       2.24350000
C        0.74770000      -2.59330000       1.52960000
O        0.78740000      -3.78850000       1.43670000
H        1.45100000       1.58770000      -0.30280000
H       -0.10980000       1.91720000      -1.06800000
H        0.09550000       2.16900000       0.67180000
H       -1.16040000       0.04910000       0.19430000
H       -0.37220000      -1.68320000      -1.18870000
H        0.48980000      -0.37770000      -2.00380000
H        1.85480000      -2.54840000      -0.93750000
H        2.56710000      -0.93060000      -0.79300000
H        1.12050000       0.26910000       1.93400000
H       -0.01090000      -1.47010000       3.32360000
H       -1.20720000      -1.68810000       2.02200000
