17
Properties=species:S:1:pos:R:3 gdb_111399=T pbc="F F F"
C       -0.20830000       1.36000000      -0.14470000
O        0.22010000       0.02470000       0.08350000
C        0.70130000      -0.60650000      -1.05230000
C        1.33340000      -1.97720000      -0.83470000
O        0.30590000      -2.90570000      -0.47880000
C        0.47180000      -2.58850000      -1.86280000
C       -0.31710000      -1.29110000      -2.09520000
C       -1.76710000      -1.31680000      -1.67750000
O       -2.55580000      -0.45210000      -1.97350000
H        0.62030000       1.98230000      -0.51490000
H       -1.03600000       1.40090000      -0.86260000
H       -0.54580000       1.75210000       0.81650000
H        1.38400000       0.04380000      -1.62030000
H        2.34130000      -2.21110000      -0.51410000
H        0.67690000      -3.40070000      -2.54890000
H       -0.22320000      -0.84690000      -3.08790000
H       -2.06580000      -2.18390000      -1.05520000
