19
Properties=species:S:1:pos:R:3 gdb_109025=T pbc="F F F"
C        0.11770000       1.50600000      -0.17070000
C       -0.05530000      -0.00470000       0.07080000
C        0.64650000      -0.47590000       1.30760000
C        0.13030000      -0.92550000       2.46370000
C        1.17860000      -1.37100000       3.43230000
C        1.98830000      -2.56230000       2.96880000
C        2.48960000      -1.14380000       2.73000000
C        2.14330000      -0.53020000       1.39260000
O        2.92280000      -0.14480000       0.54940000
H        1.17680000       1.75620000      -0.26490000
H       -0.39190000       1.80930000      -1.09020000
H       -0.30150000       2.08600000       0.65780000
H       -1.11970000      -0.25700000       0.13160000
H        0.35480000      -0.54400000      -0.79220000
H       -0.92940000      -1.02480000       2.67590000
H        1.05240000      -1.19560000       4.49410000
H        2.52520000      -3.13970000       3.71490000
H        1.61680000      -3.13480000       2.12570000
H        3.39210000      -0.82350000       3.23370000
