23
Properties=species:S:1:pos:R:3 gdb_89465=T pbc="F F F"
C        0.12950000       1.63010000      -0.03440000
C        0.06180000       0.11160000       0.04170000
C        0.92560000      -0.73990000      -0.94140000
C        1.33450000      -1.67700000       0.23680000
O        0.85500000      -2.99310000       0.19130000
C        2.73440000      -1.40710000       0.82650000
C        2.13050000      -0.22160000       1.64040000
C        0.68190000      -0.66230000       1.24240000
C       -0.22910000      -1.08820000       2.37210000
H        1.16050000       1.99760000      -0.00140000
H       -0.31400000       1.99210000      -0.96880000
H       -0.41730000       2.09680000       0.79300000
H       -0.98570000      -0.19980000      -0.04720000
H        0.36570000      -1.24130000      -1.73480000
H        1.76380000      -0.19750000      -1.39160000
H        1.27150000      -3.44260000      -0.55260000
H        3.04400000      -2.23180000       1.47440000
H        3.54500000      -1.18030000       0.12660000
H        2.32710000      -0.26000000       2.71430000
H        2.42440000       0.76710000       1.28120000
H       -0.57000000      -0.21990000       2.95010000
H       -1.11400000      -1.60820000       1.99080000
H        0.28070000      -1.76700000       3.06460000
