21
Properties=species:S:1:pos:R:3 gdb_73848=T pbc="F F F"
C        0.03990000       1.56470000       0.03970000
C       -0.00440000       0.05720000      -0.11740000
C       -1.21220000      -0.59390000      -0.09400000
C       -2.49080000       0.20040000       0.08880000
C       -1.35620000      -2.03780000      -0.09390000
C       -0.55720000      -2.93420000      -0.70030000
C        0.57070000      -2.50930000      -1.60230000
C        1.57210000      -1.78630000      -0.74170000
C        1.28050000      -0.61640000      -0.14510000
H        1.06940000       1.93050000       0.04320000
H       -0.48300000       2.06800000      -0.78220000
H       -0.43950000       1.90220000       0.96710000
H       -2.64790000       0.90160000      -0.73930000
H       -3.36170000      -0.45820000       0.12770000
H       -2.48210000       0.80020000       1.00760000
H       -2.21100000      -2.41700000       0.46460000
H       -0.72370000      -3.99570000      -0.53780000
H        1.02330000      -3.36700000      -2.10500000
H        0.18860000      -1.82850000      -2.37640000
H        2.55490000      -2.22820000      -0.60150000
H        2.08350000      -0.10190000       0.38120000
