19
Properties=species:S:1:pos:R:3 gdb_71029=T pbc="F F F"
C       -0.05300000       1.49240000      -0.06590000
C        0.05200000      -0.00850000      -0.03060000
C        0.70530000      -0.94240000      -1.11260000
C        0.19970000      -1.89600000      -0.01540000
C       -0.02750000      -3.24790000       0.62080000
O       -0.70570000      -2.79840000       1.82470000
C       -0.76160000      -1.35320000       1.70580000
C        0.58760000      -0.90070000       1.13620000
C       -1.09140000      -1.03920000       0.24220000
H        0.93790000       1.95780000      -0.11210000
H       -0.61960000       1.82930000      -0.94120000
H       -0.56040000       1.86940000       0.82870000
H        0.20470000      -0.99560000      -2.08500000
H        1.79000000      -0.86480000      -1.24090000
H       -0.68560000      -3.91460000       0.05210000
H        0.88900000      -3.78470000       0.89060000
H       -1.26410000      -0.95930000       2.58840000
H        1.56920000      -0.85870000       1.61080000
H       -2.02830000      -1.15550000      -0.30490000
