22
Properties=species:S:1:pos:R:3 gdb_118354=T pbc="F F F"
C        0.36740000       1.88850000       0.32660000
C       -0.08430000       0.42540000       0.31710000
C        0.88980000      -0.47600000       1.08680000
N        0.55630000      -1.89920000       1.07920000
C        1.35300000      -2.77130000       0.38180000
O        1.28570000      -3.98030000       0.38630000
C       -0.41370000      -2.36030000       2.03590000
C       -1.89740000      -2.14780000       1.80250000
C       -1.30420000      -3.52840000       1.73310000
H        1.35390000       2.00510000      -0.13610000
H       -0.33430000       2.52170000      -0.22360000
H        0.43400000       2.27760000       1.34880000
H       -1.08360000       0.34520000       0.75560000
H       -0.16180000       0.06030000      -0.71410000
H        1.89280000      -0.36490000       0.65900000
H        0.95900000      -0.13890000       2.13020000
H        2.09520000      -2.22100000      -0.23260000
H       -0.07690000      -2.26030000       3.06720000
H       -2.50810000      -1.87190000       2.65520000
H       -2.19630000      -1.69350000       0.86570000
H       -1.20110000      -3.99260000       0.76260000
H       -1.49420000      -4.22410000       2.54220000
