18
Properties=species:S:1:pos:R:3 gdb_51634=T pbc="F F F"
O       -0.12910000       0.05810000       0.50110000
C       -0.00520000       1.21030000       0.14080000
N        1.16320000       1.79770000      -0.22850000
C        2.44280000       1.12360000      -0.20930000
C        3.17870000       1.12720000      -1.59490000
C        4.37810000       1.99810000      -1.17540000
C        4.84920000       1.34790000       0.14400000
C        3.49600000       1.95070000       0.56540000
O        3.73130000       3.04900000      -0.37730000
H       -0.85660000       1.91620000       0.07150000
H        1.16790000       2.77160000      -0.49250000
H        2.27270000       0.12800000       0.19950000
H        3.46740000       0.12910000      -1.93310000
H        2.57390000       1.60060000      -2.37090000
H        5.05600000       2.37710000      -1.93900000
H        4.98850000       0.26470000       0.18500000
H        5.68790000       1.88050000       0.59230000
H        3.25330000       2.27090000       1.57820000
