21
Properties=species:S:1:pos:R:3 gdb_111642=T pbc="F F F"
C        0.16620000       0.95660000       0.47390000
O       -0.35310000      -0.17820000      -0.18770000
C        0.43160000      -0.59000000      -1.26120000
C        1.49120000      -1.65540000      -1.07490000
C        1.76670000      -2.27050000       0.28850000
C        0.64890000      -3.10340000       0.85150000
C       -0.49370000      -3.36490000       0.22490000
C       -0.85410000      -2.86830000      -1.14670000
C        0.18510000      -1.96790000      -1.79700000
H        1.17210000       0.77600000       0.87750000
H        0.21770000       1.82610000      -0.20000000
H       -0.51310000       1.18870000       1.29760000
H        0.64180000       0.20500000      -1.98000000
H        2.37160000      -1.54790000      -1.70230000
H        2.66320000      -2.90130000       0.20740000
H        2.03770000      -1.49100000       1.01520000
H        0.82170000      -3.51420000       1.84370000
H       -1.24190000      -3.98490000       0.71360000
H       -1.02260000      -3.73570000      -1.79990000
H       -1.82030000      -2.34720000      -1.09930000
H        0.24070000      -2.06030000      -2.87730000
