21
Properties=species:S:1:pos:R:3 gdb_79578=T pbc="F F F"
C       -0.06080000       1.55820000      -0.06350000
C        0.08170000       0.05260000       0.04330000
C        1.35970000      -0.72160000      -0.19730000
C        2.54780000      -0.01760000       0.41220000
O        3.05670000      -0.81620000       1.49750000
C        1.90620000       0.01700000       1.74230000
C        1.98780000       0.98880000       2.87680000
C        0.68320000      -0.71740000       1.19820000
C       -0.00200000      -1.85060000       1.90950000
H        0.81450000       2.08550000       0.32140000
H       -0.19510000       1.85720000      -1.10910000
H       -0.93650000       1.90800000       0.49480000
H       -0.78080000      -0.47420000      -0.36670000
H        1.41300000      -1.55470000      -0.88880000
H        3.24050000       0.68450000      -0.03790000
H        2.96550000       1.47750000       2.89200000
H        1.20980000       1.75420000       2.79570000
H        1.85310000       0.47580000       3.83600000
H       -0.61420000      -1.48990000       2.74510000
H       -0.66360000      -2.40190000       1.23350000
H        0.73510000      -2.55480000       2.30940000
