15
Properties=species:S:1:pos:R:3 gdb_2200=T pbc="F F F"
C       -0.26710000       1.27210000      -1.42800000
C        0.25360000      -0.05920000      -0.91790000
O        1.63830000      -0.32460000      -1.25900000
C        2.05130000      -0.54670000       0.11370000
C        3.20510000       0.33050000       0.56450000
C        0.63190000      -0.17210000       0.56700000
O        0.08240000       0.01010000       1.61050000
H        0.36160000       2.09770000      -1.08380000
H       -0.28060000       1.27920000      -2.52180000
H       -1.28760000       1.43350000      -1.06720000
H       -0.39800000      -0.88350000      -1.24410000
H        2.27690000      -1.60890000       0.29090000
H        2.97500000       1.38900000       0.41600000
H        3.40660000       0.16050000       1.62660000
H        4.10840000       0.08890000      -0.00320000
