14
Properties=species:S:1:pos:R:3 gdb_31941=T pbc="F F F"
C       -0.04060000       1.32850000       0.06150000
O        0.03600000      -0.10220000      -0.05580000
C        0.64640000      -0.54820000      -1.12870000
N        1.19290000       0.13260000      -2.10300000
C        1.67160000      -0.85410000      -2.93650000
C        1.39020000      -2.08750000      -2.42390000
O        0.71350000      -1.87770000      -1.23080000
C        1.66280000      -3.42980000      -2.88870000
O        1.34980000      -4.45400000      -2.32370000
H        0.96240000       1.76030000       0.09360000
H       -0.58780000       1.74930000      -0.78530000
H       -0.57090000       1.51320000       0.99460000
H        2.18940000      -0.61990000      -3.85450000
H        2.21020000      -3.43130000      -3.85710000
