17
Properties=species:S:1:pos:R:3 gdb_66028=T pbc="F F F"
C       -0.45370000       1.56370000       0.06020000
C        0.00210000       0.11000000       0.05510000
N        1.31300000      -0.12650000      -0.59800000
C        1.75090000      -1.05520000       0.46580000
C        0.60940000      -0.52000000       1.38570000
C        1.00860000       0.42770000       2.40210000
C        1.34550000       1.20500000       3.25530000
C       -1.06030000      -0.76550000      -0.46890000
N       -1.87020000      -1.46500000      -0.90830000
H        0.33630000       2.18540000       0.48330000
H       -0.65750000       1.89370000      -0.96260000
H       -1.36570000       1.68620000       0.65150000
H        1.27010000      -0.50710000      -1.53720000
H        1.61790000      -2.11930000       0.23590000
H        2.77130000      -0.88120000       0.81460000
H       -0.02150000      -1.29790000       1.81880000
H        1.64120000       1.88880000       4.01240000
