20
Properties=species:S:1:pos:R:3 gdb_117204=T pbc="F F F"
C       -0.14660000       1.10020000      -0.15240000
C        0.55980000      -0.15340000       0.34000000
O        1.29130000      -0.79890000      -0.72710000
C        0.59710000      -1.64360000      -1.50620000
O       -0.58130000      -1.88740000      -1.36590000
C        1.45290000      -2.25770000      -2.57720000
C        2.79800000      -1.63880000      -2.87870000
C        1.22620000      -3.73040000      -2.74680000
N        0.69470000      -2.78790000      -3.72630000
H        0.56420000       1.79110000      -0.61470000
H       -0.91920000       0.84430000      -0.88090000
H       -0.62360000       1.61020000       0.69050000
H        1.32160000       0.08310000       1.08630000
H       -0.15170000      -0.86820000       0.75920000
H        3.45470000      -1.67790000      -2.00580000
H        3.26930000      -2.17840000      -3.70330000
H        2.69220000      -0.59070000      -3.17430000
H        2.05840000      -4.33990000      -3.08880000
H        0.53480000      -4.21560000      -2.06450000
H       -0.29640000      -2.64820000      -3.53150000
