17
Properties=species:S:1:pos:R:3 gdb_124642=T pbc="F F F"
C       -0.00590000       1.53560000       0.05850000
C        0.01140000       0.00410000      -0.03910000
C        0.76650000      -0.49200000      -1.27200000
N        0.59690000      -0.62230000       1.15090000
C       -0.04980000      -0.65030000       2.33800000
N       -1.31220000      -0.36820000       2.55210000
O       -1.46450000      -0.61560000       3.89890000
N       -0.26840000      -1.02290000       4.42420000
N        0.59260000      -1.04920000       3.50560000
H        1.01410000       1.93360000       0.10300000
H       -0.50140000       1.96870000      -0.81590000
H       -0.54640000       1.86150000       0.95060000
H       -1.02300000      -0.35390000      -0.08780000
H        1.81520000      -0.17160000      -1.24310000
H        0.74220000      -1.58300000      -1.33570000
H        0.32180000      -0.07980000      -2.18150000
H        1.60340000      -0.64490000       1.22000000
