21
Properties=species:S:1:pos:R:3 gdb_87147=T pbc="F F F"
C       -0.10760000       1.75700000       0.64910000
C       -0.35150000       0.27030000       0.69070000
O        0.23060000      -0.52650000      -0.35630000
C        0.66560000      -0.75490000       0.99480000
C        2.11350000      -0.42000000       1.28710000
C        0.20190000      -2.08500000       1.55840000
C        0.78480000      -3.31420000       0.89630000
C       -0.27500000      -2.13770000       2.94900000
O       -1.19670000      -2.18170000       1.85740000
H        0.93050000       2.00430000       0.42020000
H       -0.73870000       2.21320000      -0.12080000
H       -0.37430000       2.21320000       1.60890000
H       -1.37780000      -0.01450000       0.91720000
H        2.40020000       0.53180000       0.83870000
H        2.28860000      -0.36580000       2.36680000
H        2.77650000      -1.18910000       0.87840000
H        1.86740000      -3.37600000       1.04460000
H        0.32580000      -4.21570000       1.30850000
H        0.58860000      -3.28030000      -0.17940000
H       -0.17920000      -3.06160000       3.51840000
H       -0.30570000      -1.22690000       3.54650000
