16
Properties=species:S:1:pos:R:3 gdb_48676=T pbc="F F F"
O       -0.11980000       0.02360000       0.18070000
C        0.00600000       1.20060000      -0.05500000
C        1.29660000       1.91800000      -0.05570000
C        1.31110000       3.40280000       0.24330000
C        1.62110000       2.94650000      -1.14730000
C        3.08580000       2.75170000      -1.47450000
O        3.70940000       3.29860000      -2.35530000
N        3.57390000       1.83830000      -0.57410000
C        2.57890000       1.14180000       0.22610000
H       -0.87240000       1.84190000      -0.29640000
H        0.34920000       3.88000000       0.40160000
H        2.11610000       3.77780000       0.86670000
H        0.94740000       3.17580000      -1.96250000
H        4.53270000       1.53590000      -0.63840000
H        2.83900000       1.15070000       1.29100000
H        2.44940000       0.09770000      -0.08150000
