20
Properties=species:S:1:pos:R:3 gdb_6717=T pbc="F F F"
C       -0.26360000       1.56930000       0.20480000
C       -0.03290000       0.08270000      -0.04230000
C        0.94460000      -0.52480000       0.96810000
O       -1.31740000      -0.53490000       0.01800000
C       -1.39050000      -1.83260000      -0.52390000
C       -2.86740000      -2.22790000      -0.58560000
C       -3.05490000      -3.68560000      -0.93400000
O       -3.72870000      -4.09840000      -1.84200000
H        0.67660000       2.12340000       0.13110000
H       -0.96740000       1.97320000      -0.52740000
H       -0.68090000       1.72730000       1.20440000
H        0.37430000      -0.05410000      -1.05870000
H        0.55090000      -0.42150000       1.98450000
H        1.12620000      -1.58600000       0.77520000
H        1.90990000      -0.01150000       0.91760000
H       -0.94710000      -1.85750000      -1.53330000
H       -0.83580000      -2.56000000       0.09130000
H       -3.29360000      -2.06430000       0.41420000
H       -3.41460000      -1.60830000      -1.29960000
H       -2.50900000      -4.39130000      -0.26310000
