18
Properties=species:S:1:pos:R:3 gdb_6143=T pbc="F F F"
C       -0.42690000       1.53390000       0.02120000
C        0.08210000       0.10210000      -0.06480000
C       -0.98190000      -0.91760000       0.31740000
C        0.90240000      -0.24250000      -1.33500000
C        2.09810000      -0.41260000      -0.36270000
O        1.27100000      -0.06620000       0.77320000
C        2.68920000      -1.73900000      -0.26850000
C        3.17740000      -2.83580000      -0.20350000
H        0.36260000       2.24410000      -0.24070000
H       -1.27180000       1.68730000      -0.65920000
H       -0.76240000       1.75670000       1.03910000
H       -1.83800000      -0.85890000      -0.36380000
H       -0.57360000      -1.93110000       0.27960000
H       -1.33930000      -0.73050000       1.33510000
H        0.60130000      -1.15230000      -1.85450000
H        1.01500000       0.57180000      -2.05220000
H        2.89320000       0.33140000      -0.50140000
H        3.61180000      -3.80270000      -0.13900000
