16
Properties=species:S:1:pos:R:3 gdb_64553=T pbc="F F F"
C        0.10750000       1.65220000      -0.22130000
C        0.00360000       0.13590000      -0.10650000
C       -1.34390000      -0.37100000      -0.57260000
O       -1.90260000      -1.33800000      -0.12090000
C        1.24120000      -0.70580000      -0.61310000
N        1.97760000      -0.17560000       0.61290000
C        0.59880000      -0.55070000       1.16550000
C        0.78430000      -1.84560000       0.33910000
O        0.86280000      -3.02490000       0.46430000
H        1.09860000       1.99560000       0.07290000
H       -0.08430000       1.97290000      -1.25100000
H       -0.63570000       2.13890000       0.41940000
H       -1.80390000       0.22610000      -1.39190000
H        1.69480000      -0.70840000      -1.60290000
H        2.68830000      -0.84330000       0.92420000
H        0.32710000      -0.38900000       2.20650000
