21
Properties=species:S:1:pos:R:3 gdb_91353=T pbc="F F F"
C        0.26350000       1.41640000      -0.41390000
C        0.04830000      -0.00970000       0.06750000
O        0.54130000      -0.99860000      -0.87410000
C        1.31220000      -1.65770000       0.14690000
C        2.76280000      -1.12040000       0.22840000
C        2.33590000      -0.23320000       1.44040000
O        2.72670000       1.11260000       1.53760000
C        0.84320000      -0.64980000       1.24420000
C        0.04750000      -0.98750000       2.48640000
H        1.28060000       1.56810000      -0.78880000
H       -0.41120000       1.63160000      -1.24870000
H        0.05920000       2.13690000       0.38430000
H       -1.02900000      -0.16250000       0.23000000
H        1.14480000      -2.73700000       0.17660000
H        3.54780000      -1.84850000       0.44570000
H        3.03210000      -0.56530000      -0.67420000
H        2.68740000      -0.69000000       2.37170000
H        2.53630000       1.54900000       0.70280000
H       -0.18710000      -0.07870000       3.05450000
H       -0.89900000      -1.48030000       2.23930000
H        0.60870000      -1.65310000       3.15100000
