14
Properties=species:S:1:pos:R:3 gdb_16440=T pbc="F F F"
O       -0.04960000       1.48070000      -0.07950000
C        0.04570000       0.07340000      -0.04060000
C        0.04020000      -0.62460000       1.33460000
C       -1.48090000      -0.36480000       1.55320000
O       -1.79730000      -1.75790000       1.83930000
C       -0.79470000      -1.82850000       0.78670000
C       -1.33060000      -0.60350000      -0.00750000
O       -2.29120000      -0.64730000      -0.98210000
H        0.83140000       1.85410000       0.01860000
H        0.76010000      -0.31320000      -0.77960000
H        0.80440000      -0.67140000       2.10590000
H       -1.98730000       0.41850000       2.11240000
H       -0.46540000      -2.80320000       0.43060000
H       -2.47150000       0.25720000      -1.26420000
