17
Properties=species:S:1:pos:R:3 gdb_112222=T pbc="F F F"
C        0.25030000       1.52600000       0.03880000
C        0.09670000       0.00200000       0.02350000
C        0.47700000      -0.59660000      -1.31270000
O        1.90210000      -0.40840000      -1.62770000
C        2.13650000      -1.75990000      -1.68170000
N        3.17310000      -2.42390000      -1.88860000
C        0.67750000      -2.14140000      -1.42540000
C        0.39070000      -2.95780000      -0.25980000
N        0.14520000      -3.59230000       0.67410000
H        1.28250000       1.81320000      -0.18030000
H       -0.39770000       1.99950000      -0.70660000
H       -0.01510000       1.93050000       1.01890000
H        0.71220000      -0.45250000       0.80760000
H       -0.94110000      -0.28260000       0.23670000
H       -0.12560000      -0.18620000      -2.12840000
H        3.98730000      -1.82620000      -2.03780000
H        0.20560000      -2.57930000      -2.30840000
