12
Properties=species:S:1:pos:R:3 gdb_130834=T pbc="F F F"
O       -0.02620000      -0.05780000       0.00620000
C       -0.02630000       1.13810000       0.00620000
C        1.31140000       1.91090000      -0.00090000
O        2.37000000       1.34830000      -0.01480000
N        1.22150000       3.31920000       0.00870000
C        0.13510000       4.18640000       0.02840000
N        0.53030000       5.42030000       0.03020000
N        1.92720000       5.41410000       0.01310000
C        2.31120000       4.17640000       0.00100000
H       -0.96110000       1.73110000       0.01040000
H       -0.89290000       3.86560000       0.03980000
H        3.32380000       3.80870000      -0.01380000
