14
Properties=species:S:1:pos:R:3 gdb_128567=T pbc="F F F"
C       -0.00920000       1.43690000      -0.00350000
O        0.01330000       0.00060000      -0.02260000
C        0.59310000      -0.62670000      -1.03740000
C        0.64340000      -1.98290000      -1.10880000
C        1.28790000      -2.59170000      -2.23770000
O        1.42260000      -3.78590000      -2.45940000
C        1.82160000      -1.57790000      -3.19160000
N        1.76080000      -0.30180000      -3.10090000
O        1.10880000       0.20370000      -1.95740000
H        1.00480000       1.84350000       0.01140000
H       -0.54720000       1.83090000      -0.86900000
H       -0.53280000       1.69640000       0.91570000
H        0.20160000      -2.57790000      -0.32190000
H        2.33000000      -1.93650000      -4.08330000
