16
Properties=species:S:1:pos:R:3 gdb_99460=T pbc="F F F"
C        0.42380000      -0.88020000      -1.24290000
N       -0.27610000      -0.56520000      -0.00520000
C        0.49190000      -0.76090000       1.20860000
C        1.81410000      -0.10710000       1.25100000
C        2.87360000       0.46230000       1.25410000
C       -0.31790000      -0.21000000       2.40500000
O       -1.20520000       0.59570000       2.25240000
C        0.07560000      -0.70750000       3.70560000
C        0.39290000      -1.15270000       4.77760000
H        0.67580000      -1.94690000      -1.26030000
H       -0.24680000      -0.68460000      -2.08380000
H        1.35480000      -0.31210000      -1.39580000
H       -0.64370000       0.38000000      -0.00830000
H        0.63750000      -1.83830000       1.37220000
H        3.81440000       0.95560000       1.26150000
H        0.66750000      -1.53460000       5.73110000
