21
Properties=species:S:1:pos:R:3 gdb_29769=T pbc="F F F"
C       -0.09390000       1.45680000       0.00530000
N       -0.01550000       0.01270000      -0.00230000
C        0.01030000      -0.78290000      -1.12120000
C        0.06990000      -2.10150000      -0.73270000
C        0.12740000      -3.29630000      -1.63500000
C        0.06460000      -2.11520000       0.69740000
C        0.11330000      -3.32440000       1.58010000
C        0.00930000      -0.79860000       1.11600000
N        0.01920000      -0.20750000       2.40210000
H        0.59040000       1.87400000      -0.73920000
H       -1.10780000       1.81220000      -0.21730000
H        0.19090000       1.80980000       0.99710000
H       -0.01830000      -0.34540000      -2.10750000
H        1.04500000      -3.88010000      -1.48740000
H       -0.71160000      -3.98250000      -1.46250000
H        0.09490000      -2.99740000      -2.68710000
H        1.06440000      -3.86660000       1.49670000
H       -0.01390000      -3.04970000       2.63250000
H       -0.67910000      -4.04200000       1.33390000
H       -0.89430000      -0.22030000       2.84630000
H        0.66510000      -0.68280000       3.02120000
