18
Properties=species:S:1:pos:R:3 gdb_121493=T pbc="F F F"
N       -0.24270000       1.57540000      -0.20190000
C        0.07180000       0.35470000       0.35730000
O        0.72620000       0.22910000       1.37070000
N       -0.39650000      -0.73040000      -0.38040000
C       -0.18270000      -2.04110000       0.00300000
N       -0.58920000      -3.00310000      -0.71650000
C       -0.32790000      -4.35190000      -0.24360000
C        0.44220000      -5.13110000      -1.31290000
O        1.70430000      -4.55410000      -1.58770000
H       -0.06530000       2.35670000       0.40980000
H       -1.06010000       1.66220000      -0.78500000
H       -0.86190000      -0.59770000      -1.26620000
H        0.34400000      -2.12340000       0.95760000
H        0.24260000      -4.36400000       0.69910000
H       -1.28680000      -4.85810000      -0.06660000
H        0.63460000      -6.14930000      -0.95960000
H       -0.17600000      -5.19780000      -2.22160000
H        1.53470000      -3.64370000      -1.85470000
