17
Properties=species:S:1:pos:R:3 gdb_92953=T pbc="F F F"
O        0.00600000       1.27970000      -0.13170000
C       -0.04530000      -0.13720000       0.01710000
C        0.52250000      -0.60490000       1.37150000
C       -0.70860000      -0.65150000       2.25100000
C       -1.83340000      -0.63350000       1.53670000
C       -1.55000000      -0.58880000       0.04210000
O       -2.39220000       0.27640000      -0.68650000
C       -1.71090000      -1.98230000      -0.56750000
O       -0.92170000      -2.87980000      -0.42020000
H       -0.23940000       1.66950000       0.71700000
H        0.48920000      -0.54400000      -0.84220000
H        0.97000000      -1.60000000       1.27490000
H        1.30540000       0.07300000       1.73010000
H       -0.65480000      -0.72070000       3.33190000
H       -2.84640000      -0.68010000       1.91740000
H       -1.88020000       1.09090000      -0.80310000
H       -2.63200000      -2.09080000      -1.18050000
