19
Properties=species:S:1:pos:R:3 gdb_92506=T pbc="F F F"
O       -0.05340000       1.35880000       0.60130000
C        0.02570000       0.07240000       0.00420000
C        0.88010000      -0.89960000       0.84940000
C       -0.10270000      -1.41050000       1.88830000
O       -0.51070000      -0.36260000       2.82400000
C       -1.90580000      -0.50960000       2.46230000
C       -1.53200000      -1.38760000       1.24960000
O       -2.25260000      -2.56730000       1.02780000
C       -1.34760000      -0.63780000      -0.07840000
H       -0.11360000       1.21520000       1.55570000
H        0.44300000       0.23200000      -0.99400000
H        1.22870000      -1.74270000       0.24100000
H        1.75400000      -0.40650000       1.28460000
H        0.19520000      -2.32130000       2.41990000
H       -2.46640000      -1.05110000       3.23840000
H       -2.38760000       0.45440000       2.27010000
H       -2.38130000      -3.01430000       1.87160000
H       -2.15060000       0.07240000      -0.28900000
H       -1.33540000      -1.38850000      -0.87580000
