19
Properties=species:S:1:pos:R:3 gdb_99085=T pbc="F F F"
C       -0.09280000       1.45700000       0.22260000
C        0.08050000      -0.04100000      -0.01460000
C        0.74690000      -0.35430000      -1.33670000
O        1.12080000       0.45430000      -2.14680000
O        0.87330000      -1.69610000      -1.49940000
C        1.50940000      -2.14760000      -2.71010000
C        3.00060000      -2.37320000      -2.51120000
C        0.75560000      -3.39910000      -3.13290000
O        1.24190000      -4.29220000      -3.77380000
H        0.87310000       1.96830000       0.21890000
H       -0.70540000       1.90980000      -0.56090000
H       -0.57580000       1.63650000       1.18680000
H        0.68050000      -0.50810000       0.77550000
H       -0.88130000      -0.56720000       0.00420000
H        1.34350000      -1.38470000      -3.48280000
H        3.17750000      -3.03430000      -1.65850000
H        3.41380000      -2.84700000      -3.40450000
H        3.50850000      -1.42180000      -2.34030000
H       -0.30910000      -3.40970000      -2.81080000
