20
Properties=species:S:1:pos:R:3 gdb_86937=T pbc="F F F"
C       -0.71690000       1.23230000      -0.16780000
C       -0.03710000      -0.12540000      -0.16330000
C        1.41680000      -0.28130000      -0.72880000
O        2.22240000       0.86820000      -0.62160000
C        1.66710000      -1.34950000       0.37890000
C        0.47400000      -0.74660000       1.16340000
O        0.91160000       0.31380000       2.02560000
C        1.21610000      -0.01150000       3.29880000
N        1.80430000       0.82370000       4.03850000
H       -0.08220000       1.99950000       0.27900000
H       -0.94430000       1.53910000      -1.19360000
H       -1.65730000       1.20380000       0.39250000
H       -0.67410000      -0.87400000      -0.64840000
H        1.50210000      -0.61280000      -1.76620000
H        2.20310000       1.16120000       0.29830000
H        1.45630000      -2.36640000       0.03660000
H        2.64320000      -1.32330000       0.86910000
H       -0.19210000      -1.41840000       1.71590000
H        0.88470000      -1.02050000       3.58020000
H        1.92450000       0.43820000       4.97290000
