23
Properties=species:S:1:pos:R:3 gdb_106043=T pbc="F F F"
C       -0.00310000      -0.62570000       0.70940000
C       -0.35140000      -0.35310000      -0.76000000
C        0.80420000      -0.54500000      -1.70470000
C        0.58020000      -0.92030000      -3.18440000
C        1.83570000      -0.56020000      -3.97430000
C        2.61870000      -0.97130000      -2.69820000
C        1.36340000      -1.83290000      -2.26500000
C        2.20940000       0.06760000      -1.60850000
C        2.43640000       1.56140000      -1.81200000
H        0.35990000      -1.64990000       0.84430000
H        0.77880000       0.05230000       1.06670000
H       -0.87840000      -0.48930000       1.35200000
H       -1.17440000      -1.01200000      -1.06630000
H       -0.73640000       0.67140000      -0.85820000
H       -0.42510000      -1.07120000      -3.55930000
H        2.00380000      -1.27630000      -4.78420000
H        1.96420000       0.45710000      -4.36010000
H        3.64780000      -1.32050000      -2.76450000
H        1.22940000      -2.86820000      -1.98570000
H        2.65950000      -0.24570000      -0.65860000
H        1.94400000       1.93510000      -2.71420000
H        2.04130000       2.13300000      -0.96450000
H        3.50550000       1.79050000      -1.89110000
