19
Properties=species:S:1:pos:R:3 gdb_40471=T pbc="F F F"
C       -0.18090000       1.42610000      -0.04460000
C        1.24220000       0.98790000       0.18810000
C        0.14480000      -0.04320000       0.07710000
C       -0.27960000      -0.77630000       1.29180000
O       -0.27040000      -0.06420000       2.57450000
C       -0.73700000      -1.40660000       2.90090000
C       -1.59610000      -1.57350000       1.61340000
C       -0.93920000      -2.92880000       1.27390000
C        0.22020000      -2.13250000       1.91060000
H       -0.70200000       1.88190000       0.78920000
H       -0.45540000       1.80720000      -1.02180000
H        1.95150000       1.06600000      -0.62810000
H        1.65750000       1.15530000       1.17510000
H        0.10980000      -0.63890000      -0.83050000
H       -0.97730000      -1.63600000       3.93830000
H       -2.61840000      -1.22720000       1.46180000
H       -1.29790000      -3.79600000       1.83490000
H       -0.84230000      -3.17760000       0.21360000
H        1.25530000      -2.41950000       2.09570000
