21
Properties=species:S:1:pos:R:3 gdb_121270=T pbc="F F F"
C        0.00830000       1.35500000       0.09960000
O       -0.01480000      -0.05150000       0.07220000
C       -1.31960000      -0.58100000      -0.04700000
C       -1.21710000      -2.09870000      -0.04650000
C       -0.58100000      -2.65850000       1.25050000
O       -1.15030000      -3.94920000       1.47120000
C       -2.40770000      -3.98150000       0.85100000
C       -3.39490000      -2.88380000       1.14940000
C       -2.54460000      -2.84130000      -0.11520000
H        1.05220000       1.66510000       0.19060000
H       -0.41200000       1.78840000      -0.82210000
H       -0.55810000       1.75750000       0.95460000
H       -1.95100000      -0.24100000       0.79220000
H       -1.79670000      -0.22470000      -0.97580000
H       -0.61060000      -2.39930000      -0.90900000
H        0.50280000      -2.77250000       1.18800000
H       -0.79920000      -1.99230000       2.09800000
H       -2.73850000      -4.99360000       0.65060000
H       -4.44710000      -3.11510000       1.02320000
H       -3.18690000      -2.19450000       1.96050000
H       -3.02720000      -2.95990000      -1.07830000
