18
Properties=species:S:1:pos:R:3 gdb_74265=T pbc="F F F"
C        0.05680000       1.46430000       0.00140000
C       -0.05200000      -0.01760000       0.01050000
N       -1.10420000      -0.72190000      -0.06370000
C       -0.67720000      -2.12710000      -0.01400000
C       -1.26240000      -2.82910000       1.22060000
C       -1.06420000      -2.85880000      -1.30770000
C        0.84910000      -2.04060000       0.10500000
O        1.67840000      -2.89270000       0.18020000
O        1.16050000      -0.68740000       0.11360000
H        0.67710000       1.79390000      -0.83810000
H       -0.93800000       1.90100000      -0.08150000
H        0.53950000       1.81460000       0.91930000
H       -2.35150000      -2.86770000       1.13800000
H       -0.86910000      -3.84650000       1.29250000
H       -1.00660000      -2.29060000       2.13720000
H       -0.66800000      -2.34140000      -2.18570000
H       -0.66620000      -3.87690000      -1.29390000
H       -2.15290000      -2.89780000      -1.39480000
