18
Properties=species:S:1:pos:R:3 gdb_55712=T pbc="F F F"
C        0.12270000       1.48450000      -0.02070000
C       -0.33050000       0.03140000      -0.03330000
O       -1.15250000      -0.41030000       0.74180000
N        0.26960000      -0.73430000      -1.01100000
C        0.15930000      -2.16750000      -1.06170000
C       -1.22810000      -2.73870000      -1.27490000
C       -0.24750000      -2.76460000      -2.40610000
C        1.09910000      -2.89960000      -0.24900000
C        1.90280000      -3.49820000       0.41600000
H        1.02510000       1.57780000       0.59360000
H        0.35220000       1.86230000      -1.02120000
H       -0.66160000       2.09200000       0.43120000
H        1.04860000      -0.32830000      -1.50720000
H       -1.45320000      -3.66410000      -0.76020000
H       -2.03570000      -2.01950000      -1.29890000
H       -0.38400000      -2.06010000      -3.21870000
H        0.20930000      -3.70740000      -2.68080000
H        2.60050000      -4.02580000       1.01780000
