20
Properties=species:S:1:pos:R:3 gdb_88511=T pbc="F F F"
C        0.06340000       2.13370000      -0.00780000
C       -0.10660000       0.63170000       0.05910000
C        0.99220000      -0.31170000      -0.36400000
C        0.58290000      -0.24360000       1.09120000
C        1.46440000       0.23940000       2.21360000
C        0.80000000       0.55270000       3.52950000
N        1.62290000      -0.63920000       3.40980000
C        2.74580000       0.97910000       1.98600000
O        3.11960000       1.48270000       0.95560000
H        1.09920000       2.42720000       0.16910000
H       -0.22450000       2.50410000      -0.99790000
H       -0.57180000       2.63930000       0.72900000
H       -1.11560000       0.29830000      -0.17340000
H        0.73630000      -1.20720000      -0.92020000
H        1.94210000       0.13390000      -0.62820000
H       -0.03530000      -1.07410000       1.42840000
H        1.19720000       1.32740000       4.18080000
H       -0.28330000       0.46260000       3.53660000
H        1.04680000      -1.46820000       3.28900000
H        3.36020000       1.02690000       2.91120000
