17
Properties=species:S:1:pos:R:3 gdb_38108=T pbc="F F F"
C       -0.09860000       1.47520000       0.07780000
C        1.31420000       0.88690000       0.02500000
C        2.30080000       0.35560000       1.01030000
C        2.17520000      -0.92040000       1.40390000
C        0.86850000      -1.65820000       1.09990000
O       -0.15060000      -0.65780000       1.16980000
C        0.06530000       0.00630000      -0.06070000
C        0.19370000      -1.10400000      -1.05790000
C        0.74260000      -2.11310000      -0.37000000
H       -0.52760000       1.79160000       1.02250000
H       -0.37240000       2.08360000      -0.77750000
H        1.77920000       1.09330000      -0.93960000
H        3.19020000       0.93430000       1.24910000
H        2.93800000      -1.41890000       1.99320000
H        0.65770000      -2.43990000       1.83340000
H        0.02340000      -1.03370000      -2.12340000
H        1.09920000      -3.05970000      -0.75190000
