17
Properties=species:S:1:pos:R:3 gdb_127941=T pbc="F F F"
C       -0.22500000       1.34110000       0.07640000
N       -0.20990000      -0.10460000       0.12910000
C        0.61380000      -0.67210000       0.94310000
N        1.50050000      -0.04090000       1.78910000
N        2.39940000      -0.60160000       2.64470000
C        2.40640000      -1.90300000       2.65280000
C        1.56220000      -2.72620000       1.85800000
C        0.66000000      -2.13870000       1.01230000
N       -0.24060000      -2.76320000       0.21830000
H        0.74920000       1.76970000      -0.21840000
H       -0.96000000       1.67270000      -0.66140000
H       -0.50220000       1.80110000       1.04110000
H        1.52300000       0.96550000       1.79690000
H        3.12280000      -2.35280000       3.33240000
H        1.63590000      -3.80540000       1.93450000
H       -0.15580000      -3.74410000       0.01970000
H       -0.71910000      -2.15700000      -0.43460000
