14
Properties=species:S:1:pos:R:3 gdb_128083=T pbc="F F F"
C        0.07700000       1.43440000       0.05090000
N       -0.08240000      -0.00790000       0.09450000
C       -1.27250000      -0.59880000      -0.10280000
O       -2.34110000      -0.08480000      -0.33370000
N       -1.18590000      -2.03940000      -0.01220000
C       -2.17710000      -2.94420000      -0.15540000
N       -1.67930000      -4.14690000       0.00160000
N       -0.34680000      -3.96700000       0.24730000
N       -0.03970000      -2.71890000       0.24190000
H        0.77780000       1.72430000      -0.73810000
H       -0.89830000       1.87420000      -0.15780000
H        0.44440000       1.81400000       1.00930000
H        0.70970000      -0.60710000       0.27680000
H       -3.19820000      -2.67580000      -0.36450000
