14
Properties=species:S:1:pos:R:3 gdb_31479=T pbc="F F F"
O       -0.13120000       1.40450000       0.19340000
C       -0.00660000       0.00230000       0.00130000
C       -1.39030000      -0.56860000       0.02300000
N       -1.71470000      -1.83650000       0.06840000
C       -3.09760000      -1.85150000       0.04260000
C       -3.59560000      -0.56810000      -0.01510000
N       -2.49140000       0.23690000      -0.03080000
C       -3.85350000      -3.05320000       0.07690000
N       -4.49020000      -4.01970000       0.10330000
H        0.72660000       1.81160000       0.04650000
H        0.47180000      -0.23260000      -0.96120000
H        0.59110000      -0.47480000       0.79010000
H       -4.60140000      -0.18540000      -0.03970000
H       -2.45370000       1.24350000      -0.04720000
