22
Properties=species:S:1:pos:R:3 gdb_12646=T pbc="F F F"
C       -0.16430000       1.53810000      -0.05670000
C        0.08940000       0.03240000      -0.00710000
C        0.91180000      -0.52710000      -1.19640000
C        1.54630000      -1.76130000      -0.60610000
C        1.48390000      -1.77970000       0.72750000
C        2.02110000      -2.83810000       1.64000000
C        0.81640000      -0.51810000       1.26070000
C        1.84700000       0.43920000       1.88790000
H        0.77010000       2.10870000      -0.05820000
H       -0.71330000       1.80610000      -0.96600000
H       -0.76070000       1.87530000       0.79830000
H       -0.88320000      -0.47480000      -0.03880000
H        0.28300000      -0.73650000      -2.07000000
H        1.67510000       0.19030000      -1.53560000
H        2.01950000      -2.52870000      -1.21090000
H        2.47900000      -3.65760000       1.07890000
H        2.77790000      -2.43680000       2.32580000
H        1.22610000      -3.25950000       2.26910000
H        0.08000000      -0.76280000       2.03870000
H        2.60610000       0.74210000       1.15890000
H        1.36800000       1.34330000       2.27590000
H        2.36590000      -0.04120000       2.72370000
