17
Properties=species:S:1:pos:R:3 gdb_32269=T pbc="F F F"
N        0.09830000       1.38950000      -0.05720000
C        0.05420000       0.00260000      -0.05440000
C       -1.14990000      -0.70870000      -0.04130000
C       -1.12210000      -2.09530000       0.01300000
C        0.10830000      -2.74360000       0.04470000
N        1.26870000      -2.08260000       0.03210000
C        1.25210000      -0.75010000      -0.00440000
C        2.59010000      -0.04900000       0.02860000
O        2.76340000       0.89340000      -1.04030000
H        0.92000000       1.77000000      -0.51060000
H       -0.75810000       1.84660000      -0.33290000
H       -2.09410000      -0.17190000      -0.07280000
H       -2.04420000      -2.66640000       0.02290000
H        0.16850000      -3.82780000       0.07940000
H        2.68670000       0.55020000       0.94160000
H        3.37880000      -0.80920000       0.02740000
H        2.69820000       0.40150000      -1.86620000
