20
Properties=species:S:1:pos:R:3 gdb_88789=T pbc="F F F"
C       -0.88240000       1.38650000       0.60990000
C       -0.76600000      -0.10760000       0.81310000
C        0.37530000      -0.87660000       0.23370000
N        0.24540000      -0.70980000       1.68250000
C        1.18450000       0.08400000       2.43400000
C        2.29810000      -0.68410000       3.21990000
C        3.32720000       0.43110000       2.88290000
C        2.33740000       0.93190000       1.82020000
O        2.45670000       1.58540000       0.82100000
H        0.09480000       1.84880000       0.45140000
H       -1.50610000       1.59340000      -0.26640000
H       -1.36350000       1.86560000       1.47090000
H       -1.72410000      -0.62140000       0.88850000
H        0.23510000      -1.89100000      -0.13170000
H        1.13670000      -0.30070000      -0.28580000
H        0.62800000       0.72790000       3.12850000
H        2.09600000      -0.87330000       4.27400000
H        2.53630000      -1.62670000       2.72290000
H        3.45900000       1.16390000       3.68540000
H        4.31190000       0.13610000       2.51430000
