18
Properties=species:S:1:pos:R:3 gdb_8942=T pbc="F F F"
C       -0.04020000       1.43630000      -0.07550000
O       -0.03720000       0.04940000       0.17610000
C       -1.28730000      -0.60180000      -0.00270000
C       -1.69790000      -0.72350000      -1.46920000
C       -1.13330000      -1.98460000       0.65950000
O       -0.32610000      -2.85350000      -0.08160000
C       -0.56990000      -1.80660000       2.05900000
O        0.41750000      -2.39360000       2.42490000
H        0.93690000       1.81740000       0.23090000
H       -0.18780000       1.67230000      -1.13820000
H       -0.82030000       1.95290000       0.50600000
H       -2.06640000      -0.05100000       0.55580000
H       -2.65540000      -1.24740000      -1.55300000
H       -1.81590000       0.25930000      -1.93290000
H       -0.94160000      -1.29170000      -2.01410000
H       -2.14800000      -2.40910000       0.76890000
H        0.43220000      -3.05280000       0.49010000
H       -1.12390000      -1.11660000       2.72750000
