21
Properties=species:S:1:pos:R:3 gdb_60236=T pbc="F F F"
C       -0.35640000       1.55850000       0.34560000
C       -0.13520000       0.09740000      -0.02320000
C        1.02710000      -0.52900000       0.74960000
O       -1.36890000      -0.58190000       0.27350000
C       -1.58520000      -1.75850000      -0.43850000
C       -2.91070000      -2.50480000      -0.12030000
C       -3.15770000      -2.73800000      -1.64150000
C       -2.08230000      -1.66770000      -1.90590000
O       -1.83580000      -0.93460000      -2.81970000
H        0.54180000       2.14840000       0.14010000
H       -1.18730000       1.97440000      -0.22950000
H       -0.59390000       1.64910000       1.41060000
H        0.05290000       0.02460000      -1.10210000
H        0.85110000      -0.45220000       1.82730000
H        1.16020000      -1.58610000       0.49960000
H        1.96410000      -0.01470000       0.51320000
H       -0.72760000      -2.45060000      -0.38660000
H       -2.83040000      -3.38790000       0.51330000
H       -3.63480000      -1.80940000       0.30890000
H       -2.84170000      -3.72680000      -1.98860000
H       -4.15110000      -2.52760000      -2.04260000
