18
Properties=species:S:1:pos:R:3 gdb_76095=T pbc="F F F"
C       -0.24000000       1.49020000      -0.03250000
N        0.05800000       0.06440000       0.06160000
C        1.40370000      -0.42230000      -0.29460000
C        2.44980000       0.47820000      -0.69380000
C        3.31980000       1.22500000      -1.05960000
C        0.90860000      -0.43500000       1.13170000
C        1.51830000       0.44570000       2.17730000
C        0.93840000       0.50610000       3.52760000
O        2.11780000      -0.25440000       3.27210000
H        0.61630000       2.15550000       0.13510000
H       -0.63420000       1.69380000      -1.03230000
H       -1.02070000       1.72840000       0.69590000
H        1.39150000      -1.36270000      -0.84190000
H        4.09560000       1.87520000      -1.38130000
H        0.59310000      -1.39570000       1.53780000
H        2.09730000       1.29630000       1.82490000
H        1.07670000       1.40040000       4.13350000
H        0.04660000      -0.07750000       3.75400000
