16
Properties=species:S:1:pos:R:3 gdb_33315=T pbc="F F F"
C       -0.03100000      -3.83770000      -0.12220000
C       -0.01420000      -2.63110000      -0.07280000
C        0.00380000      -1.27270000      -0.01660000
C        0.02610000      -0.06260000       0.03780000
C       -0.00080000       1.37940000       0.07630000
C        0.02950000       2.15460000       1.42750000
C        1.50810000       1.72210000       1.49980000
N        1.36900000       2.13070000       0.01670000
C        0.56360000       3.32050000       0.57520000
H       -0.04390000      -4.89840000      -0.16760000
H       -0.69580000       1.76620000      -0.67630000
H       -0.73550000       2.15520000       2.21050000
H        2.19840000       2.36200000       2.05440000
H        1.73520000       0.66470000       1.64350000
H       -0.10440000       3.78130000      -0.15770000
H        1.19230000       4.06510000       1.06790000
