21
Properties=species:S:1:pos:R:3 gdb_118447=T pbc="F F F"
C       -0.03260000       1.40490000      -0.09110000
N       -0.06800000      -0.05200000      -0.00140000
C        0.60090000      -0.57730000       1.18390000
C        0.68730000      -2.11260000       1.11490000
N        1.37580000      -2.51560000      -0.10930000
H        1.18390000      -1.80500000      -0.81110000
H        2.81090000      -2.79770000       1.10500000
C        0.99780000      -3.83910000      -0.60560000
C        1.46050000      -2.60620000       2.35220000
O        0.98480000      -2.65370000       3.45470000
O        2.73210000      -2.93040000       2.07810000
H        1.00490000       1.73680000      -0.20560000
H       -0.58750000       1.72970000      -0.97580000
H       -0.45300000       1.91890000       0.78950000
H       -1.03490000      -0.36390000      -0.00300000
H        1.61830000      -0.16560000       1.20060000
H        0.12170000      -0.29830000       2.13500000
H       -0.33120000      -2.52680000       1.18600000
H        1.29090000      -4.60470000       0.12010000
H       -0.08360000      -3.94290000      -0.78780000
H        1.52870000      -4.04230000      -1.53940000
