13
Properties=species:S:1:pos:R:3 gdb_80237=T pbc="F F F"
O        0.13330000       1.42920000      -0.09150000
C        0.03970000       0.05150000      -0.02300000
C        0.10350000      -0.65280000       1.36500000
O       -0.99680000      -0.00250000       2.06370000
C       -2.02550000      -0.01180000       1.12620000
O       -3.11050000       0.42710000       1.33820000
C       -1.39060000      -0.66410000      -0.08890000
C       -0.64030000      -1.80890000       0.65490000
O       -0.58120000      -2.99180000       0.58900000
H       -0.30520000       1.81370000       0.67900000
H        0.73040000      -0.37270000      -0.75400000
H        0.97800000      -0.72790000       2.00400000
H       -1.99550000      -0.78300000      -0.98040000
