21
Properties=species:S:1:pos:R:3 gdb_81346=T pbc="F F F"
C       -0.21910000       1.61160000       0.06540000
C        0.03360000       0.11600000       0.01230000
C        0.82080000      -0.57150000      -1.13520000
C        2.07420000       0.20840000      -1.55840000
C        2.86950000       0.57660000      -0.32360000
C        2.42060000       0.20500000       0.87830000
C        3.08030000       0.51280000       2.18760000
C        1.12880000      -0.59860000       0.85730000
O        1.22760000      -1.60620000      -0.19430000
H        0.70520000       2.18800000      -0.02180000
H       -0.89050000       1.91730000      -0.74490000
H       -0.70160000       1.89070000       1.00890000
H       -0.90180000      -0.43550000       0.14480000
H        0.26520000      -0.97770000      -1.98560000
H        2.67790000      -0.40890000      -2.23670000
H        1.79320000       1.10570000      -2.12780000
H        3.79630000       1.13250000      -0.44280000
H        3.99390000       1.09810000       2.04970000
H        2.41270000       1.08000000       2.84980000
H        3.34120000      -0.40790000       2.72560000
H        0.86470000      -1.03370000       1.82510000
