21
Properties=species:S:1:pos:R:3 gdb_120222=T pbc="F F F"
C       -0.03610000       1.48720000      -0.05140000
C        0.21460000      -0.00840000       0.03390000
O        0.43990000      -0.49940000      -1.27860000
C        0.62240000      -1.88530000      -1.33740000
C        1.04660000      -2.35590000      -2.76210000
C        2.49120000      -1.89150000      -2.38480000
C        2.04850000      -2.44290000      -1.01010000
O        1.87100000      -3.84860000      -1.23550000
C        1.16580000      -3.85930000      -2.50460000
H        0.82910000       1.99800000      -0.48350000
H       -0.90570000       1.69460000      -0.68140000
H       -0.22100000       1.89970000       0.94480000
H        1.08250000      -0.21970000       0.67770000
H       -0.65190000      -0.52320000       0.48040000
H       -0.20790000      -2.42180000      -0.85420000
H        0.52490000      -2.02180000      -3.65760000
H        3.33720000      -2.38320000      -2.87030000
H        2.59060000      -0.80780000      -2.39850000
H        2.58260000      -2.28280000      -0.07490000
H        0.20090000      -4.36660000      -2.39030000
H        1.75910000      -4.38690000      -3.26090000
