15
Properties=species:S:1:pos:R:3 gdb_2181=T pbc="F F F"
O       -0.17540000       1.47340000       0.30230000
C       -0.01650000       0.06920000       0.11670000
C        0.58530000      -0.53290000       1.40080000
O       -0.25850000      -1.60820000       1.79360000
C       -1.57310000      -1.25480000       1.40320000
C       -1.40940000      -0.63640000       0.00310000
O       -2.43790000       0.24160000      -0.38610000
H       -0.36030000       1.85840000      -0.56120000
H        0.60670000      -0.12570000      -0.76270000
H        1.59420000      -0.93090000       1.27100000
H        0.61110000       0.25730000       2.16640000
H       -2.19060000      -2.15510000       1.42430000
H       -2.01560000      -0.50700000       2.08460000
H       -1.36980000      -1.42790000      -0.75040000
H       -2.30870000       1.04170000       0.14100000
