18
Properties=species:S:1:pos:R:3 gdb_123421=T pbc="F F F"
C       -0.03690000       1.48000000      -0.27380000
C       -0.09400000      -0.02540000      -0.14110000
C       -0.30450000      -0.66800000       1.20690000
C       -1.40860000      -0.68880000       0.18020000
N        1.30540000       2.02310000      -0.08910000
C        2.01240000       2.16710000       1.07180000
N        3.20510000       2.65300000       0.83950000
N        3.30880000       2.83940000      -0.52550000
C        2.17330000       2.45810000      -1.05090000
H       -0.37440000       1.79370000      -1.26660000
H       -0.70730000       1.94880000       0.45500000
H        0.56100000      -0.55140000      -0.82980000
H        0.22290000      -1.59010000       1.42150000
H       -0.43190000      -0.02050000       2.06870000
H       -2.27060000      -0.05210000       0.35200000
H       -1.64220000      -1.62480000      -0.31360000
H        1.61220000       1.90940000       2.03990000
H        1.92070000       2.47850000      -2.10020000
