21
Properties=species:S:1:pos:R:3 gdb_61919=T pbc="F F F"
C        0.18430000       1.61920000       0.00010000
C        0.10060000       0.08770000      -0.08900000
C        0.80770000      -0.55360000       1.11610000
C        0.91520000      -2.08450000       0.98410000
C        1.52130000      -2.70790000       2.15690000
N        2.00220000      -3.18560000       3.09310000
N       -1.23900000      -0.51010000      -0.19850000
C       -2.42090000       0.16990000       0.31790000
C       -2.20960000       0.00380000      -1.14880000
H        1.22990000       1.93360000      -0.06970000
H       -0.35730000       2.11230000      -0.81240000
H       -0.20760000       1.99280000       0.95150000
H        0.62740000      -0.22590000      -1.00130000
H        1.80790000      -0.12200000       1.22560000
H        0.25440000      -0.30730000       2.02980000
H       -0.08360000      -2.50090000       0.82410000
H        1.51230000      -2.34850000       0.10300000
H       -3.12840000      -0.46000000       0.85020000
H       -2.32420000       1.17620000       0.71740000
H       -1.96900000       0.90060000      -1.71640000
H       -2.76100000      -0.74720000      -1.70840000
