21
Properties=species:S:1:pos:R:3 gdb_62656=T pbc="F F F"
C       -0.15570000       1.57560000      -0.03690000
C       -0.02950000       0.05960000      -0.00840000
O       -1.28430000      -0.55890000      -0.24980000
C        1.19600000      -0.60430000      -0.67460000
C        2.11870000      -0.28720000       0.55290000
C        2.59000000      -1.74990000       0.66170000
C        1.10490000      -1.85370000       0.26680000
C        0.70470000      -0.61970000       1.16610000
C        0.30620000      -0.64260000       2.61580000
H        0.79240000       2.06970000       0.19290000
H       -0.47120000       1.91890000      -1.03090000
H       -0.90720000       1.91100000       0.68490000
H       -1.65820000      -0.17990000      -1.05210000
H        1.50270000      -0.60880000      -1.72280000
H        2.69080000       0.62830000       0.71210000
H        3.32130000      -2.08520000      -0.08100000
H        2.86840000      -2.11070000       1.65730000
H        0.49440000      -2.73880000       0.09530000
H        1.00460000      -1.24050000       3.21160000
H        0.28660000       0.36800000       3.03930000
H       -0.69340000      -1.07420000       2.73200000
