13
Properties=species:S:1:pos:R:3 gdb_27513=T pbc="F F F"
O        0.06400000       1.30360000       0.00730000
C       -0.05580000      -0.02400000       0.00110000
C       -1.22330000      -0.68090000       0.00380000
C       -1.22620000      -2.12600000      -0.00360000
N       -2.29800000      -2.81860000      -0.00170000
N        0.07800000      -2.68030000      -0.01330000
C        1.27200000      -2.01600000      -0.01570000
O        2.35680000      -2.51950000      -0.02460000
O        1.16300000      -0.63220000      -0.00830000
H        1.00420000       1.52620000       0.00360000
H       -2.16110000      -0.14860000       0.01150000
H       -2.10820000      -3.82130000      -0.00800000
H        0.17160000      -3.68590000      -0.01920000
