14
Properties=species:S:1:pos:R:3 gdb_27704=T pbc="F F F"
C       -0.00720000       1.40410000       0.09860000
C        0.01540000      -0.07400000      -0.04120000
N        0.00740000      -0.77370000      -1.14210000
C        0.03700000      -2.07920000      -0.71900000
O        0.03860000      -3.10370000      -1.58090000
C        0.06310000      -2.14000000       0.64830000
O        0.04830000      -0.81370000       1.07840000
C        0.09770000      -3.17520000       1.58410000
C        0.12760000      -4.07600000       2.38490000
H        0.87920000       1.75870000       0.63440000
H       -0.03200000       1.85700000      -0.89260000
H       -0.88590000       1.72910000       0.66500000
H        0.01620000      -2.72360000      -2.46800000
H        0.15380000      -4.87300000       3.08560000
