20
Properties=species:S:1:pos:R:3 gdb_37177=T pbc="F F F"
C       -0.03900000       1.52900000       0.22780000
C        1.49000000       1.56760000      -0.15790000
C        1.28420000       0.18690000      -0.80780000
C        0.37680000       0.16950000      -2.08810000
C       -0.41940000      -0.86730000      -1.26780000
C        0.65350000      -1.99370000      -1.09550000
N        1.78320000      -1.97430000      -2.06350000
C        1.89520000      -1.21960000      -0.79440000
C       -0.02720000      -0.02840000       0.00180000
H       -0.26810000       1.81980000       1.25480000
H       -0.67770000       2.11000000      -0.43860000
H        1.83510000       2.38440000      -0.79820000
H        2.12400000       1.52660000       0.73370000
H       -0.16120000       1.10450000      -2.22930000
H        0.83110000      -0.15690000      -3.02020000
H       -1.43040000      -1.19030000      -1.52340000
H        0.39980000      -2.92140000      -0.59480000
H        2.29650000      -2.84920000      -1.97150000
H        2.60840000      -1.52250000      -0.03590000
H        0.03200000      -0.57880000       0.94600000
