17
Properties=species:S:1:pos:R:3 gdb_98345=T pbc="F F F"
O        0.04640000       1.39910000       0.12500000
C       -0.01050000       0.01170000      -0.01640000
C       -1.43730000      -0.50080000       0.05560000
O       -2.35190000       0.29180000       0.17400000
C       -1.73870000      -1.99760000       0.00940000
O       -3.10370000      -2.21850000       0.20950000
C       -1.27250000      -2.62040000      -1.33660000
C       -1.49480000      -4.05780000      -1.38030000
C       -1.66190000      -5.24690000      -1.40420000
H       -0.87380000       1.69420000       0.20090000
H        0.42870000      -0.30580000      -0.97670000
H        0.57540000      -0.49360000       0.76870000
H       -1.15900000      -2.47560000       0.81560000
H       -3.51280000      -1.34050000       0.25730000
H       -1.82160000      -2.12870000      -2.14920000
H       -0.20690000      -2.41130000      -1.49160000
H       -1.81890000      -6.29670000      -1.43100000
