17
Properties=species:S:1:pos:R:3 gdb_29714=T pbc="F F F"
C       -0.00350000       1.46530000      -0.03060000
N        0.03100000       0.01910000      -0.00580000
C        0.01980000      -0.79140000      -1.09200000
O       -0.02820000      -0.20230000      -2.31750000
C        0.06160000      -2.11350000      -0.70030000
C        0.10070000      -2.08740000       0.72640000
O        0.14950000      -3.15340000       1.58590000
C        0.08200000      -0.78290000       1.15180000
N        0.10360000      -0.19080000       2.43020000
H        0.01750000       1.80660000       1.00470000
H        0.86010000       1.87140000      -0.56700000
H       -0.91360000       1.83000000      -0.51750000
H       -0.02920000      -0.89610000      -2.98320000
H        0.06400000      -2.97910000      -1.34590000
H        0.15420000      -3.96030000       1.06430000
H        0.94100000      -0.43420000       2.94940000
H       -0.69140000      -0.47260000       2.99470000
