16
Properties=species:S:1:pos:R:3 gdb_125630=T pbc="F F F"
C        0.00100000       1.46180000      -0.00960000
C       -0.01740000      -0.03110000       0.04050000
N       -0.16250000      -0.78710000      -1.06420000
N       -0.13290000      -2.08330000      -0.64540000
C        0.02640000      -1.97620000       0.66490000
N        0.10870000      -0.74840000       1.18440000
N        0.10880000      -3.10900000       1.50300000
H        0.23220000      -2.87940000       2.48370000
C        0.03770000      -4.34170000       1.09360000
N        0.11680000      -5.42050000       1.88400000
H        0.94270000       1.86460000       0.38010000
H       -0.11880000       1.79280000      -1.04330000
H       -0.80710000       1.89310000       0.59200000
H       -0.09510000      -4.47550000       0.02470000
H        0.04880000      -6.33830000       1.48220000
H        0.23810000      -5.35460000       2.88130000
