14
Properties=species:S:1:pos:R:3 gdb_132169=T pbc="F F F"
N       -0.02260000       1.36230000       0.13880000
C        0.06050000      -0.00850000       0.04200000
N       -1.12010000      -0.69150000       0.03950000
H       -2.00480000      -0.20910000       0.12420000
C       -1.21990000      -2.09130000      -0.00420000
N       -2.38160000      -2.62610000      -0.00650000
C        0.09190000      -2.70230000      -0.02950000
F        0.11590000      -4.04050000      -0.06150000
C        1.22040000      -1.96100000      -0.01240000
N        1.22740000      -0.58590000       0.00820000
H        0.86520000       1.81040000      -0.03530000
H       -0.80160000       1.81140000      -0.31940000
H       -2.28960000      -3.63950000      -0.03480000
H        2.19030000      -2.44860000      -0.02530000
