21
Properties=species:S:1:pos:R:3 gdb_101486=T pbc="F F F"
C        0.04570000       1.39570000      -0.00500000
O       -0.09880000      -0.00180000      -0.11320000
C        0.59890000      -0.59400000      -1.20140000
C        2.11050000      -0.63800000      -0.98540000
C       -0.00320000      -1.99830000      -1.33720000
C       -1.48170000      -1.98350000      -1.76670000
O       -1.40760000      -2.14240000      -3.17920000
C       -0.33670000      -3.02510000      -3.36650000
O        0.64840000      -2.69800000      -2.40170000
H        1.06980000       1.69490000       0.25870000
H       -0.23300000       1.90620000      -0.94010000
H       -0.62670000       1.72720000       0.79050000
H        0.37370000      -0.04120000      -2.12940000
H        2.34200000      -1.13190000      -0.03580000
H        2.57980000      -1.19980000      -1.79610000
H        2.54550000       0.36510000      -0.96770000
H        0.14110000      -2.54020000      -0.39450000
H       -2.03860000      -2.81420000      -1.30880000
H       -1.98260000      -1.04260000      -1.53970000
H       -0.65850000      -4.07360000      -3.22740000
H        0.07050000      -2.88680000      -4.37280000
