17
Properties=species:S:1:pos:R:3 gdb_78644=T pbc="F F F"
O        0.47100000       0.98180000       0.59870000
C        0.12620000      -0.16250000      -0.12480000
C       -1.43020000      -0.26800000      -0.38120000
C       -1.30290000       0.33440000      -1.76570000
C        0.14320000      -0.17900000      -1.67390000
C        0.25250000      -1.42850000      -2.18460000
C       -1.11820000      -2.00000000      -2.48380000
C       -1.96490000      -1.00210000      -1.66170000
O       -3.34820000      -1.14370000      -1.63290000
H        0.07820000       1.74360000       0.15560000
H        0.63190000      -0.99460000       0.37170000
H       -2.16520000      -0.00490000       0.37560000
H       -1.69180000       1.25500000      -2.17960000
H        1.06560000      -2.09000000      -1.89710000
H       -1.45620000      -1.99320000      -3.53140000
H       -1.17760000      -3.03750000      -2.13410000
H       -3.67550000      -1.07640000      -2.53740000
