23
Properties=species:S:1:pos:R:3 gdb_39377=T pbc="F F F"
C       -0.04910000       1.51600000       0.58080000
C        1.15430000       0.86810000      -0.06490000
C        2.52170000       0.78780000       0.61620000
C        2.78420000      -0.38330000       1.58920000
C        2.77840000      -1.73330000       0.91490000
C        1.75070000      -2.53850000       0.64100000
C        0.27850000      -2.38870000       0.92800000
C       -0.25890000      -1.00000000       1.30640000
C       -0.09550000       0.05170000       0.22610000
H        0.03080000       1.75230000       1.63910000
H       -0.63590000       2.23190000       0.01470000
H        1.24580000       1.10090000      -1.12260000
H        3.28200000       0.73040000      -0.17190000
H        2.71520000       1.72850000       1.14740000
H        3.77560000      -0.22280000       2.02870000
H        2.08500000      -0.34560000       2.42680000
H        3.75890000      -2.07020000       0.58040000
H        1.99060000      -3.47240000       0.13250000
H       -0.26650000      -2.73750000       0.03820000
H        0.00120000      -3.10400000       1.71740000
H       -1.33390000      -1.10380000       1.50600000
H        0.17530000      -0.66030000       2.24940000
H       -0.66460000      -0.19160000      -0.66980000
