21
Properties=species:S:1:pos:R:3 gdb_111359=T pbc="F F F"
C       -0.14720000       1.56100000       0.00800000
C       -0.19340000       0.03040000       0.07340000
C        0.70200000      -0.54960000       1.16290000
C        0.71890000      -2.06520000       1.39660000
C        1.35650000      -2.80120000       0.24950000
C        2.23750000      -2.11260000       1.24830000
C        2.28520000      -0.59500000       0.97050000
C        2.85780000      -0.16720000      -0.29330000
C        3.32190000       0.17520000      -1.34980000
H        0.86510000       1.91370000      -0.21090000
H       -0.81030000       1.94370000      -0.77410000
H       -0.46170000       2.00740000       0.95850000
H       -1.22240000      -0.30120000       0.26610000
H        0.08730000      -0.38550000      -0.90040000
H        0.49910000      -0.03100000       2.10610000
H        0.09740000      -2.57840000       2.12090000
H        1.33000000      -3.88310000       0.33130000
H        1.29130000      -2.43250000      -0.77020000
H        2.97200000      -2.64310000       1.84120000
H        2.77080000      -0.05760000       1.78980000
H        3.74130000       0.47900000      -2.27670000
