20
Properties=species:S:1:pos:R:3 gdb_60577=T pbc="F F F"
C        0.05720000       1.43610000      -0.32160000
C       -0.09630000       0.01080000       0.14760000
O        1.08000000      -0.80520000       0.17950000
C        0.41900000      -0.53630000       1.41810000
C        1.19240000       0.26820000       2.44750000
O        0.30130000       0.78850000       3.42940000
C        2.20420000      -0.61130000       3.15940000
C        2.69910000      -0.26270000       4.50980000
N        1.79380000      -1.41540000       4.31950000
H        0.92040000       1.92890000       0.13000000
H        0.19090000       1.45780000      -1.40800000
H       -0.84340000       2.01560000      -0.08890000
H       -0.96250000      -0.50440000      -0.27380000
H       -0.10250000      -1.39530000       1.84570000
H        1.73690000       1.07720000       1.93950000
H       -0.37250000       1.30670000       2.97950000
H        2.86820000      -1.12680000       2.46920000
H        3.71550000      -0.51880000       4.79520000
H        2.29490000       0.62910000       4.97820000
H        0.85660000      -1.12110000       4.58850000
