18
Properties=species:S:1:pos:R:3 gdb_67197=T pbc="F F F"
C       -0.05200000       1.55330000      -0.08680000
C        0.09820000       0.07490000       0.01060000
C        0.66210000      -0.98110000      -0.86520000
C        1.37790000      -1.66520000       0.29560000
C        0.34870000      -0.94310000       1.20110000
C       -0.98250000      -1.59580000       0.75460000
C       -2.16630000      -1.11910000       1.44560000
C       -3.13370000      -0.73120000       2.04460000
N       -0.82720000      -0.92870000      -0.59330000
H        0.87550000       2.06660000       0.19020000
H       -0.30700000       1.83360000      -1.11350000
H       -0.85090000       1.91080000       0.57110000
H        0.94380000      -0.93300000      -1.90920000
H        1.41110000      -2.75950000       0.33770000
H        2.38560000      -1.26050000       0.42100000
H        0.55580000      -0.72180000       2.24580000
H       -0.98930000      -2.69230000       0.70500000
H       -3.99620000      -0.39320000       2.56360000
