17
Properties=species:S:1:pos:R:3 gdb_46690=T pbc="F F F"
O        0.09840000      -0.03440000      -0.00850000
C       -0.02060000       1.16730000       0.02770000
C       -1.34500000       1.90960000       0.04190000
C       -1.41210000       3.01560000      -1.04570000
C       -0.08610000       3.69700000      -1.34970000
C        0.95340000       4.11250000      -0.34640000
O        0.94190000       3.29110000       0.82440000
C        1.17690000       2.10540000       0.01350000
C        1.23370000       2.95380000      -1.27410000
H       -2.15660000       1.18910000      -0.07790000
H       -1.43390000       2.37030000       1.03160000
H       -1.76480000       2.56020000      -1.97920000
H       -2.16420000       3.76100000      -0.76340000
H       -0.12350000       4.38050000      -2.19620000
H        1.37930000       5.10530000      -0.25800000
H        2.10160000       1.59740000       0.29410000
H        1.93030000       2.82350000      -2.09030000
