16
Properties=species:S:1:pos:R:3 gdb_51836=T pbc="F F F"
N        0.01200000       1.25780000       0.01500000
C        0.01550000       0.00220000      -0.08030000
O       -1.10850000      -0.68740000       0.24430000
C       -1.08420000      -2.08190000       0.04260000
C       -2.31990000      -2.75540000       0.64260000
O       -2.49300000      -3.94030000      -0.13300000
C       -2.22250000      -3.62190000      -1.48710000
C       -1.21130000      -2.48050000      -1.44540000
O       -0.64990000      -1.95200000      -2.36510000
H        0.92490000       1.62870000      -0.23980000
H        0.84790000      -0.63690000      -0.39400000
H       -0.16510000      -2.53170000       0.44600000
H       -2.20590000      -3.05500000       1.68480000
H       -3.18070000      -2.07570000       0.55410000
H       -1.83280000      -4.50520000      -2.00060000
H       -3.12260000      -3.27880000      -2.02390000
