15
Properties=species:S:1:pos:R:3 gdb_3063=T pbc="F F F"
O        0.05720000       1.13830000      -0.74700000
C       -0.04790000       0.09490000       0.21720000
C       -1.38330000      -0.48290000       0.18210000
C       -2.48330000      -0.97530000       0.16970000
C       -3.79410000      -1.55360000       0.15350000
C       -4.44160000      -1.93380000      -1.17020000
C       -3.98250000      -3.01270000      -0.23720000
H        0.95050000       1.49260000      -0.68720000
H        0.69420000      -0.69750000       0.02390000
H        0.15210000       0.47310000       1.23340000
H       -4.47170000      -1.18080000       0.91620000
H       -5.50530000      -1.74980000      -1.26940000
H       -3.86310000      -1.75350000      -2.06800000
H       -3.09130000      -3.56960000      -0.49980000
H       -4.72780000      -3.57820000       0.31070000
