18
Properties=species:S:1:pos:R:3 gdb_60941=T pbc="F F F"
O        0.48500000       1.31450000      -0.29930000
C        0.00990000       0.01250000      -0.08070000
C        0.38540000      -0.89110000      -1.24220000
O        1.00160000      -0.46470000      -2.19000000
C        0.62420000      -0.54130000       1.20870000
C        0.08570000      -0.22280000       2.62530000
C       -1.05480000      -1.20530000       2.29070000
N        0.17340000      -1.93650000       1.70490000
C        0.85430000      -1.50440000       3.02010000
H        0.92420000       1.28450000      -1.16530000
H       -1.09060000       0.01280000      -0.02900000
H        0.07410000      -1.94930000      -1.16540000
H        1.71310000      -0.48120000       1.10170000
H        0.04140000       0.74260000       3.13820000
H       -1.51640000      -1.74610000       3.12080000
H       -1.81010000      -0.92500000       1.55570000
H        1.94600000      -1.49330000       2.96330000
H        0.50300000      -2.06600000       3.88930000
