23
Properties=species:S:1:pos:R:3 gdb_72717=T pbc="F F F"
C       -0.08080000       1.52210000      -0.13090000
C       -0.05130000      -0.00970000      -0.00910000
C       -1.33380000      -0.42280000       0.82510000
C       -0.37570000      -0.36660000       2.10430000
C        0.76960000      -0.66360000       1.09060000
C        2.05540000      -0.24350000       0.29690000
C        1.08800000      -0.60400000      -0.94340000
C        0.97000000      -2.12030000      -0.81330000
C        0.77190000      -2.18710000       0.72630000
H        0.84810000       1.95480000      -0.50800000
H       -0.86840000       1.78800000      -0.84700000
H       -0.32750000       2.02370000       0.81070000
H       -2.16050000       0.29230000       0.80190000
H       -1.73220000      -1.42080000       0.64460000
H       -0.36000000       0.63400000       2.54060000
H       -0.54550000      -1.09660000       2.90040000
H        2.31750000       0.81050000       0.35430000
H        2.95690000      -0.85650000       0.40310000
H        1.28020000      -0.18650000      -1.93510000
H        0.11680000      -2.52030000      -1.36930000
H        1.86820000      -2.64180000      -1.15690000
H        1.60570000      -2.67950000       1.23670000
H       -0.13620000      -2.71570000       1.01940000
