17
Properties=species:S:1:pos:R:3 gdb_16537=T pbc="F F F"
C       -0.37900000       1.57070000       0.08440000
C       -0.05070000       0.08970000      -0.03090000
C        0.76240000      -0.49610000      -1.21990000
C        1.98040000       0.27380000      -1.80860000
C        2.89590000      -0.59220000      -0.89220000
N        1.68200000      -1.19230000      -0.24340000
C        1.12830000      -0.43480000       0.82440000
O        1.55200000      -0.20680000       1.92090000
H        0.49980000       2.19860000      -0.08930000
H       -1.15360000       1.86060000      -0.63220000
H       -0.74440000       1.79240000       1.09120000
H       -0.95410000      -0.50920000       0.13100000
H        0.22040000      -1.13580000      -1.91920000
H        2.13030000       0.14800000      -2.88220000
H        1.99820000       1.34160000      -1.57750000
H        3.47980000      -1.34910000      -1.42080000
H        3.54240000      -0.06770000      -0.18460000
