20
Properties=species:S:1:pos:R:3 gdb_111586=T pbc="F F F"
O       -0.10630000       1.51440000      -0.18660000
C        0.06990000       0.12540000       0.05930000
C       -1.29270000      -0.52740000      -0.03850000
C       -2.03770000      -0.64640000      -1.38620000
C       -1.22660000      -1.22450000      -2.56240000
C       -1.44850000      -2.61550000      -1.94120000
C       -0.53720000      -2.93800000      -0.74300000
C       -1.46900000      -2.05310000       0.11190000
N       -2.52930000      -2.05400000      -1.00190000
H        0.75710000       1.93720000      -0.16370000
H        0.76700000      -0.31740000      -0.66850000
H        0.49160000      -0.05640000       1.06220000
H       -1.95830000      -0.02840000       0.67390000
H       -2.77940000       0.12030000      -1.61460000
H       -1.77130000      -1.11460000      -3.50360000
H       -0.19920000      -0.88060000      -2.71580000
H       -1.71660000      -3.43550000      -2.61100000
H       -0.62150000      -3.98750000      -0.44890000
H        0.52450000      -2.68290000      -0.81400000
H       -1.74870000      -2.42910000       1.09860000
