22
Properties=species:S:1:pos:R:3 gdb_117229=T pbc="F F F"
C        0.95020000      -0.48310000       1.74840000
C        1.41080000      -1.88170000       1.38150000
O        1.36760000      -1.98780000      -0.04900000
C        1.77290000      -3.15810000      -0.58570000
N        2.15880000      -4.11790000       0.15560000
C        1.65790000      -3.08110000      -2.07170000
C        2.03620000      -4.23020000      -2.97190000
C        0.58590000      -3.86700000      -2.82480000
C       -0.38320000      -4.78390000      -2.11380000
H        1.60490000       0.27290000       1.30530000
H       -0.06950000      -0.30210000       1.39640000
H        0.96670000      -0.35890000       2.83540000
H        2.43090000      -2.08310000       1.72510000
H        0.76830000      -2.65370000       1.81810000
H        2.46400000      -4.90790000      -0.40760000
H        1.84120000      -2.08040000      -2.44750000
H        2.55500000      -3.99610000      -3.89480000
H        2.36780000      -5.15310000      -2.50500000
H        0.15110000      -3.32170000      -3.65840000
H        0.07280000      -5.24690000      -1.23460000
H       -1.26770000      -4.23390000      -1.77510000
H       -0.72130000      -5.58300000      -2.78240000
