21
Properties=species:S:1:pos:R:3 gdb_94836=T pbc="F F F"
C        0.05880000       1.51510000       0.03550000
C        0.02060000      -0.00360000      -0.00240000
C        0.70560000      -0.58510000      -1.24080000
O        0.71810000      -2.00780000      -1.19430000
C        1.34450000      -2.46670000      -0.02260000
C        1.85050000      -3.86850000      -0.07480000
C        2.83220000      -2.70980000      -0.08290000
C        0.69590000      -1.90080000       1.21760000
O        0.67370000      -0.48130000       1.17110000
H        1.09240000       1.87410000       0.01880000
H       -0.47250000       1.93770000      -0.82280000
H       -0.41360000       1.88070000       0.95080000
H       -1.02560000      -0.35710000       0.00240000
H        0.16600000      -0.30940000      -2.15170000
H        1.73430000      -0.19640000      -1.30330000
H        1.77270000      -4.48130000       0.81720000
H        1.69800000      -4.39940000      -1.00750000
H        3.32710000      -2.49010000      -1.02210000
H        3.42930000      -2.52670000       0.80390000
H       -0.33260000      -2.29100000       1.30050000
H        1.24900000      -2.17980000       2.11890000
