13
Properties=species:S:1:pos:R:3 gdb_971=T pbc="F F F"
C       -0.03770000       1.55040000       0.12150000
C        0.01450000       0.06840000      -0.00680000
C        0.05570000      -0.76590000      -1.09630000
O        0.05770000      -0.38450000      -2.39670000
N        0.09670000      -2.08320000      -0.73840000
C        0.08120000      -2.07730000       0.57980000
N        0.03220000      -0.81340000       1.06970000
H        0.82870000       1.95720000       0.65890000
H       -0.04370000       1.99340000      -0.87700000
H       -0.93980000       1.89630000       0.64250000
H        0.09140000      -1.19840000      -2.91300000
H        0.10370000      -2.94890000       1.21570000
H        0.01200000      -0.55170000       2.04080000
