19
Properties=species:S:1:pos:R:3 gdb_60298=T pbc="F F F"
C       -0.19520000       1.46950000      -0.03440000
C        0.03290000      -0.04460000      -0.00850000
C        0.85590000      -0.52310000      -1.19860000
O        0.74790000      -0.45780000       1.15700000
C       -0.01390000      -0.44280000       2.34630000
C        0.74650000      -1.05230000       3.42770000
C        1.35120000      -1.54920000       4.34950000
C        2.03750000      -2.10960000       5.38200000
C        2.64430000      -2.60640000       6.30010000
H        0.76390000       1.99590000      -0.00190000
H       -0.71790000       1.75810000      -0.95180000
H       -0.80290000       1.80970000       0.80940000
H       -0.94610000      -0.55420000      -0.01860000
H        1.83850000      -0.04130000      -1.19770000
H        1.00500000      -1.60450000      -1.14900000
H        0.35140000      -0.27980000      -2.13830000
H       -0.29120000       0.58280000       2.64020000
H       -0.95990000      -0.99590000       2.20760000
H        3.18070000      -3.04340000       7.10540000
