23
Properties=species:S:1:pos:R:3 gdb_100254=T pbc="F F F"
C        0.18490000       1.52390000       0.01880000
C        0.02520000       0.00230000       0.00490000
C       -1.44020000      -0.51960000       0.01710000
C       -1.41880000      -2.06560000       0.02970000
C       -2.20000000      -0.00900000       1.26280000
O       -1.47560000      -0.39580000       2.42190000
C       -2.16500000      -0.04710000      -1.16840000
C       -2.77120000       0.33490000      -2.13730000
C       -3.50140000       0.79100000      -3.31250000
H        1.23900000       1.79710000      -0.09190000
H       -0.37190000       1.98910000      -0.80050000
H       -0.16590000       1.95710000       0.96050000
H        0.51110000      -0.40710000      -0.88810000
H        0.53370000      -0.42810000       0.87290000
H       -0.95030000      -2.42270000       0.95000000
H       -2.43460000      -2.46850000      -0.02370000
H       -0.85730000      -2.44890000      -0.82680000
H       -2.30610000       1.08290000       1.20450000
H       -3.21150000      -0.44140000       1.25940000
H       -1.96520000      -0.10130000       3.19470000
H       -4.20950000       0.03150000      -3.66240000
H       -4.07240000       1.70170000      -3.09930000
H       -2.82150000       1.01510000      -4.14200000
