21
Properties=species:S:1:pos:R:3 gdb_26100=T pbc="F F F"
C       -0.02850000       1.54140000       0.02220000
C       -0.01030000      -0.00300000       0.01140000
C        0.73800000      -0.51150000       1.26320000
C       -1.45810000      -0.52380000       0.04420000
C        0.70280000      -0.48870000      -1.23300000
C        0.21440000      -1.27240000      -2.23380000
O        1.15780000      -1.49920000      -3.18990000
C        2.27850000      -0.84450000      -2.79260000
C        2.06660000      -0.21110000      -1.61240000
H        0.98570000       1.95230000       0.00620000
H       -0.56160000       1.93280000      -0.84980000
H       -0.52710000       1.91420000       0.92390000
H        0.24620000      -0.15740000       2.17600000
H        0.75980000      -1.60540000       1.28900000
H        1.77290000      -0.15600000       1.28100000
H       -2.02750000      -0.17230000      -0.82240000
H       -1.48760000      -1.61820000       0.05130000
H       -1.96920000      -0.17000000       0.94540000
H       -0.74160000      -1.73420000      -2.41170000
H        3.12780000      -0.92660000      -3.45080000
H        2.78660000       0.38250000      -1.07070000
