18
Properties=species:S:1:pos:R:3 gdb_30192=T pbc="F F F"
C       -0.61610000       1.50710000      -0.29880000
C        0.06680000       0.18140000      -0.02000000
C        0.84610000      -0.53610000      -1.19060000
C        2.03990000      -0.46590000      -0.25850000
C        3.20680000      -0.95380000       0.28520000
C        3.20540000      -0.46480000       1.63470000
O        4.20190000      -0.61100000       2.55770000
C        2.03960000       0.24190000       1.88480000
N        1.37550000       0.26830000       0.67680000
H        0.06420000       2.19320000      -0.81200000
H       -1.49760000       1.35210000      -0.93000000
H       -0.94690000       1.98200000       0.63050000
H       -0.61220000      -0.51010000       0.49160000
H        0.47940000      -1.53850000      -1.42640000
H        0.91260000       0.04510000      -2.11560000
H        3.97000000      -1.55980000      -0.17950000
H        4.90790000      -1.12830000       2.16060000
H        1.73290000       0.79030000       2.75890000
