19
Properties=species:S:1:pos:R:3 gdb_82943=T pbc="F F F"
C       -0.08070000       1.56380000      -0.05010000
C        0.06360000       0.05610000       0.01390000
C        1.35380000      -0.68830000      -0.28630000
O        2.56350000       0.01860000      -0.14040000
C        2.94490000       0.06330000       1.22210000
C        2.27790000       1.06420000       2.12610000
C        1.77510000      -0.36670000       2.06410000
C        0.72120000      -0.83050000       1.07040000
O        0.07390000      -2.02500000       1.39980000
H        0.88880000       2.05240000      -0.16580000
H       -0.68220000       1.83230000      -0.92450000
H       -0.58030000       1.98030000       0.83070000
H       -0.78880000      -0.48200000      -0.39820000
H        1.38640000      -1.47810000      -1.03050000
H        3.97360000      -0.23890000       1.38950000
H        2.82640000       1.33390000       3.02370000
H        1.69540000       1.86970000       1.70520000
H        1.89060000      -1.01250000       2.92580000
H       -0.69730000      -1.80570000       1.93400000
