17
Properties=species:S:1:pos:R:3 gdb_110285=T pbc="F F F"
C        0.17720000       1.19890000      -0.26190000
O       -0.27210000      -0.08510000       0.15900000
C        0.54820000      -0.65740000       1.15660000
C        0.12140000      -2.05540000       1.59650000
C        0.22740000      -2.99500000       0.45850000
O       -0.05630000      -2.67530000      -0.85910000
C        1.53610000      -2.62840000       1.17680000
C        1.94070000      -1.25650000       0.76510000
O        2.96760000      -0.74750000       0.41020000
H        1.19200000       1.15450000      -0.67220000
H       -0.51800000       1.54200000      -1.03020000
H        0.16440000       1.90700000       0.57870000
H        0.68000000       0.03890000       1.99890000
H       -0.42620000      -2.26780000       2.50580000
H       -0.06650000      -4.01780000       0.68210000
H       -0.28700000      -1.73440000      -0.88970000
H        2.15640000      -3.38360000       1.64250000
