20
Properties=species:S:1:pos:R:3 gdb_57376=T pbc="F F F"
C       -0.10210000       1.47310000      -0.12730000
C        0.09480000      -0.04660000      -0.02890000
C        0.92840000      -0.42440000       1.20180000
O       -1.18830000      -0.68990000       0.03530000
C        0.73890000      -0.59050000      -1.31250000
C        0.48170000      -2.01260000      -1.71830000
N       -0.11900000      -0.92190000      -2.47700000
C        2.05800000      -0.04480000      -1.74970000
O        2.78900000       0.66270000      -1.09930000
H        0.85810000       1.98690000      -0.19930000
H       -0.70720000       1.72540000      -1.00300000
H       -0.61950000       1.84200000       0.76610000
H        0.45110000      -0.04270000       2.11190000
H        1.00770000      -1.51160000       1.28690000
H        1.93040000       0.00330000       1.13330000
H       -1.66950000      -0.30750000       0.77560000
H        1.25300000      -2.57350000      -2.23990000
H       -0.14600000      -2.58760000      -1.04600000
H       -1.08290000      -0.81140000      -2.16640000
H        2.32490000      -0.36900000      -2.77920000
