18
Properties=species:S:1:pos:R:3 gdb_15578=T pbc="F F F"
C       -0.20630000       1.55360000      -0.08790000
C        0.05880000       0.05200000      -0.04330000
C        0.92590000      -0.50790000      -1.18210000
C        1.31030000      -1.89230000      -0.65840000
N        1.56400000      -1.65060000       0.76810000
C        0.79980000      -0.48210000       1.22490000
C        1.71020000       0.51950000       1.82100000
N        2.41260000       1.30470000       2.29680000
H        0.72670000       2.12390000      -0.06210000
H       -0.74160000       1.81530000      -1.00590000
H       -0.81900000       1.87950000       0.75880000
H       -0.90240000      -0.47720000      -0.06610000
H        0.39400000      -0.54670000      -2.13560000
H        1.82040000       0.11170000      -1.31440000
H        0.48550000      -2.60240000      -0.83360000
H        2.20470000      -2.29810000      -1.14270000
H        1.42740000      -2.46180000       1.35320000
H        0.06870000      -0.73620000       2.00300000
