13
Properties=species:S:1:pos:R:3 gdb_46465=T pbc="F F F"
O       -0.02800000       0.01500000       0.30510000
C        0.00090000       1.17900000       0.04090000
O       -1.12090000       1.92880000      -0.15840000
C       -0.81980000       3.22900000      -0.68470000
C        0.69490000       3.37470000      -0.60710000
O        1.15290000       3.20150000       0.74230000
C        1.20540000       2.07150000      -0.13770000
C        1.38920000       4.29230000      -1.45600000
C        1.92790000       5.08140000      -2.18420000
H       -1.17070000       3.28560000      -1.71940000
H       -1.33310000       3.97970000      -0.07860000
H        2.18050000       1.65660000      -0.36310000
H        2.41750000       5.77560000      -2.82260000
