14
Properties=species:S:1:pos:R:3 gdb_11659=T pbc="F F F"
O       -0.03330000       1.51550000       0.12950000
C       -0.07590000       0.13120000       0.01420000
C       -0.04850000      -0.68910000       1.32330000
C       -1.48090000      -0.21440000       1.66130000
C       -1.43050000      -0.65880000       0.17090000
O       -0.62010000      -1.82660000       0.56040000
C       -2.53030000      -0.83930000      -0.81750000
O       -3.11450000       0.08950000      -1.31910000
H       -0.32900000       1.90090000      -0.70230000
H        0.55890000      -0.27720000      -0.77980000
H        0.78880000      -0.90550000       1.98520000
H       -2.04870000      -0.87810000       2.31350000
H       -1.63230000       0.84560000       1.85920000
H       -2.76330000      -1.89740000      -1.06760000
