14
Properties=species:S:1:pos:R:3 gdb_131442=T pbc="F F F"
O        0.18520000       1.37380000       0.03680000
C        0.10940000       0.03550000       0.05950000
N        0.14290000      -0.65610000      -1.06890000
O        0.04070000      -2.03630000      -0.66800000
C       -0.04200000      -2.01530000       0.64600000
C       -0.00920000      -0.78450000       1.20340000
C       -0.11250000      -0.93860000       2.69170000
C       -0.20750000      -2.50900000       2.79450000
O       -0.15140000      -3.07930000       1.43510000
H        0.25930000       1.64440000      -0.88910000
H        0.75890000      -0.56270000       3.23750000
H       -0.99830000      -0.46390000       3.12600000
H        0.62490000      -2.94430000       3.35020000
H       -1.14790000      -2.84440000       3.23510000
