12
Properties=species:S:1:pos:R:3 gdb_43039=T pbc="F F F"
O       -0.08830000       0.04430000       0.01330000
C       -0.05940000       1.23190000       0.08050000
C       -1.10500000       2.36930000      -0.05560000
O       -0.91200000       3.13430000       1.16830000
C        0.33920000       3.53540000       0.63270000
C        0.02980000       3.19540000      -0.76390000
C        1.03710000       2.27670000       0.03930000
C        2.43890000       2.14940000      -0.11940000
N        3.58520000       2.04720000      -0.24530000
H       -2.13770000       2.21810000      -0.35320000
H        0.90470000       4.33070000       1.09980000
H        0.17460000       3.63540000      -1.73880000
