15
Properties=species:S:1:pos:R:3 gdb_14218=T pbc="F F F"
C       -0.02070000       1.48680000       0.11340000
C       -0.04460000      -0.00570000       0.03190000
C       -1.24990000      -0.91380000      -0.26330000
C       -0.31660000      -2.09780000       0.12610000
C        0.60090000      -1.04120000       0.85160000
N        1.20650000      -0.68170000      -0.50900000
C        0.74330000      -1.99180000      -0.96180000
O        1.20990000      -2.70180000      -1.79460000
H        0.95410000       1.83970000       0.45810000
H       -0.21490000       1.92930000      -0.86900000
H       -0.78950000       1.84320000       0.80710000
H       -2.04000000      -0.75300000       0.47480000
H       -1.67430000      -0.91920000      -1.27290000
H       -0.69390000      -3.04760000       0.49400000
H        1.20920000      -1.06090000       1.74390000
