17
Properties=species:S:1:pos:R:3 gdb_37311=T pbc="F F F"
C        0.18910000       1.57880000       0.23490000
C        1.33830000       0.68650000       0.01010000
C        1.70810000      -0.09430000       1.28210000
N        2.17180000       0.68920000       2.40540000
C        1.31670000       1.03640000       3.27120000
O       -0.01230000       0.77720000       3.33870000
C       -0.54480000      -0.30030000       2.54020000
C        0.24040000      -0.59950000       1.27450000
N       -0.08740000       0.14580000       0.00370000
H        0.00570000       2.02610000       1.20640000
H       -0.12710000       2.19050000      -0.60460000
H        1.93950000       0.71700000      -0.89200000
H        2.43330000      -0.88420000       1.07640000
H        1.60550000       1.66450000       4.11250000
H       -0.55890000      -1.19130000       3.17930000
H       -1.57820000      -0.02300000       2.31390000
H        0.16020000      -1.66580000       1.05140000
