19
Properties=species:S:1:pos:R:3 gdb_118938=T pbc="F F F"
C        0.21500000       0.75910000       0.45700000
O       -0.42180000       0.22580000      -0.69770000
C        0.40400000      -0.54260000      -1.53770000
C        0.52390000      -2.01920000      -1.10810000
N       -0.80130000      -2.54270000      -0.87730000
C        1.43660000      -2.82650000      -2.07130000
O        2.45740000      -2.93640000      -1.03090000
C        1.64340000      -2.33010000      -0.10140000
N        1.79580000      -2.17840000       1.13550000
H        0.53660000      -0.02360000       1.15230000
H        1.08940000       1.36450000       0.17560000
H       -0.51900000       1.40670000       0.94250000
H       -0.07750000      -0.53340000      -2.52250000
H        1.40540000      -0.09790000      -1.63560000
H       -0.77640000      -3.34870000      -0.26170000
H       -1.35500000      -1.82440000      -0.41880000
H        1.04340000      -3.80800000      -2.34510000
H        1.82310000      -2.30470000      -2.95130000
H        2.67990000      -2.57540000       1.45880000
