15
Properties=species:S:1:pos:R:3 gdb_15756=T pbc="F F F"
O        1.05440000      -0.04690000      -0.13090000
C        0.55340000       1.00640000      -0.42400000
C        0.99010000       2.34210000       0.15950000
C        1.09520000       3.40010000      -0.93340000
O        0.19440000       3.60740000      -1.71630000
N        2.26780000       4.14430000      -0.90510000
C        3.59390000       3.62670000      -1.20310000
C        2.91780000       4.62120000      -2.10250000
H       -0.27880000       1.08510000      -1.15320000
H        0.18990000       2.67210000       0.83600000
H        1.90730000       2.21870000       0.73660000
H        4.38990000       3.94540000      -0.53630000
H        3.67080000       2.60120000      -1.55640000
H        2.51910000       4.26830000      -3.04940000
H        3.23570000       5.65920000      -2.08750000
