18
Properties=species:S:1:pos:R:3 gdb_104639=T pbc="F F F"
C       -0.14530000       1.33180000       0.06640000
O        0.13660000      -0.05870000       0.00070000
C        0.73770000      -0.59260000       1.14710000
C       -0.11860000      -0.69020000       2.45710000
C        0.35480000      -2.14910000       2.61540000
O       -0.67380000      -3.02350000       3.00400000
C        0.79930000      -2.14480000       1.12500000
C        2.05810000       0.01790000       1.39500000
N        3.08910000       0.50330000       1.59070000
H        0.77120000       1.92530000       0.18020000
H       -0.62820000       1.59350000      -0.87650000
H       -0.82670000       1.56610000       0.89570000
H        0.07670000       0.01320000       3.26650000
H       -1.17680000      -0.67470000       2.18440000
H        1.21880000      -2.21920000       3.28860000
H       -0.29640000      -3.89670000       3.15100000
H       -0.00860000      -2.50640000       0.48520000
H        1.74490000      -2.61160000       0.84740000
