20
Properties=species:S:1:pos:R:3 gdb_52149=T pbc="F F F"
O       -0.04560000       0.63250000      -1.23870000
C        0.00030000       1.37060000      -0.27720000
N        1.07530000       1.53900000       0.53800000
C        2.35030000       0.86290000       0.33310000
C        3.47340000       1.85520000       0.05950000
C        4.13160000       2.70690000       1.20000000
C        4.88570000       1.42760000       1.66740000
C        4.97520000       1.42520000       0.11160000
C        5.31370000       2.94150000       0.21580000
H       -0.85640000       1.99680000       0.04360000
H        0.99480000       2.19820000       1.29590000
H        2.56510000       0.22030000       1.19300000
H        2.20490000       0.21310000      -0.53370000
H        3.21340000       2.44450000      -0.82750000
H        3.64910000       3.45690000       1.83060000
H        5.82510000       1.59460000       2.20120000
H        4.30860000       0.63700000       2.14890000
H        5.46550000       0.68360000      -0.52080000
H        5.10700000       3.55380000      -0.66620000
H        6.27720000       3.19370000       0.66600000
