18
Properties=species:S:1:pos:R:3 gdb_23387=T pbc="F F F"
O       -0.15880000       1.34790000       0.05700000
N        0.00860000      -0.05630000       0.00660000
C       -1.10800000      -0.64500000      -0.04130000
C       -1.46030000      -2.11820000       0.01290000
C       -2.72480000      -1.64230000       0.80920000
C       -2.58490000      -0.28280000       0.03990000
C       -3.15760000      -0.48200000      -1.35710000
C       -2.83290000      -1.59300000      -2.01980000
C       -1.88380000      -2.59320000      -1.39760000
H        0.75280000       1.65360000       0.10930000
H       -0.75860000      -2.80420000       0.48960000
H       -3.65320000      -2.19570000       0.65090000
H       -2.51270000      -1.53710000       1.87510000
H       -2.87840000       0.64970000       0.51750000
H       -3.81280000       0.27540000      -1.77420000
H       -3.22370000      -1.80040000      -3.01150000
H       -0.99300000      -2.71210000      -2.02890000
H       -2.35010000      -3.58630000      -1.33690000
