21
Properties=species:S:1:pos:R:3 gdb_74449=T pbc="F F F"
C       -0.10450000       1.54810000       0.02700000
C       -0.01460000       0.05470000       0.00210000
C       -0.14190000      -0.74430000      -1.06150000
C        0.01360000      -2.20400000      -0.72570000
C       -1.08470000      -3.11270000      -1.23960000
O        1.33240000      -2.72520000      -1.09240000
C        1.79960000      -2.59410000       0.26450000
C        0.40620000      -2.17910000       0.78170000
C        0.23390000      -0.73550000       1.27630000
H        0.82730000       1.99200000       0.40040000
H       -0.30420000       1.95970000      -0.96570000
H       -0.90010000       1.88460000       0.70420000
H       -0.32830000      -0.40340000      -2.07510000
H       -1.09600000      -3.11130000      -2.33500000
H       -0.92270000      -4.14120000      -0.90440000
H       -2.06520000      -2.77420000      -0.88850000
H        2.19850000      -3.54100000       0.64710000
H        2.57180000      -1.81850000       0.36490000
H       -0.07560000      -2.92560000       1.41450000
H        1.11720000      -0.36930000       1.81750000
H       -0.60970000      -0.63210000       1.97270000
