23
Properties=species:S:1:pos:R:3 gdb_101188=T pbc="F F F"
C       -0.31190000       1.34570000       0.06830000
C        0.03910000      -0.13260000      -0.14960000
C        0.90290000      -0.32460000      -1.39770000
O        0.17040000       0.12940000      -2.52800000
C        0.74740000      -0.71190000       1.06260000
C        0.08060000      -1.18180000       2.32850000
C       -1.23990000      -1.91240000       2.04610000
C       -0.47150000      -2.92050000       1.13160000
C        0.83650000      -2.17170000       1.42760000
H        0.59190000       1.93380000       0.27090000
H       -0.79350000       1.76300000      -0.81880000
H       -0.98390000       1.46590000       0.92350000
H       -0.89210000      -0.68170000      -0.33020000
H        1.84420000       0.23980000      -1.28270000
H        1.16820000      -1.38860000      -1.49820000
H        0.73190000       0.04720000      -3.30380000
H        1.68120000      -0.19270000       1.28290000
H        0.37140000      -0.78780000       3.29550000
H       -1.64640000      -2.39810000       2.93580000
H       -2.03810000      -1.32250000       1.58400000
H       -0.47620000      -3.93060000       1.54690000
H       -0.77760000      -2.98150000       0.08220000
H        1.79330000      -2.65090000       1.60150000
