19
Properties=species:S:1:pos:R:3 gdb_74848=T pbc="F F F"
C        0.03400000       1.50220000      -0.01490000
C       -0.00650000       0.00790000      -0.04980000
C       -0.08220000      -0.77510000      -1.13210000
C       -0.05140000      -2.21590000      -0.75370000
O        1.16760000      -2.61060000      -0.06450000
C        0.02260000      -2.26470000       0.70940000
C        0.03590000      -0.82660000       1.24140000
C        1.26300000      -0.54440000       2.11080000
O       -1.17300000      -0.67350000       1.99140000
H        0.99160000       1.87480000       0.37010000
H       -0.11380000       1.92760000      -1.01070000
H       -0.75030000       1.89900000       0.64180000
H       -0.13080000      -0.42670000      -2.15730000
H       -0.49960000      -2.99200000      -1.36550000
H       -0.41250000      -3.04430000       1.32900000
H        2.17790000      -0.77110000       1.55910000
H        1.29660000       0.50740000       2.41850000
H        1.23100000      -1.16380000       3.01230000
H       -1.07740000       0.09590000       2.56150000
