20
Properties=species:S:1:pos:R:3 gdb_8407=T pbc="F F F"
C       -0.03060000       1.52190000      -0.02840000
C       -0.00860000       0.00520000      -0.01010000
C       -1.23280000      -0.65070000      -0.62020000
C        1.32950000      -0.68770000      -0.18490000
C        0.65430000      -0.67900000       1.15500000
C        1.14340000      -0.08530000       2.47330000
O        0.62460000      -1.21990000       3.20120000
C        0.16260000      -1.85790000       1.99050000
H        0.87350000       1.94600000       0.41910000
H       -0.09980000       1.89820000      -1.05560000
H       -0.89190000       1.91350000       0.52580000
H       -1.34880000      -0.35870000      -1.67040000
H       -1.16760000      -1.74260000      -0.58560000
H       -2.14700000      -0.35460000      -0.09200000
H        1.35700000      -1.62420000      -0.73500000
H        2.21580000      -0.07220000      -0.31230000
H        2.23260000       0.00790000       2.58210000
H        0.67180000       0.85500000       2.78930000
H       -0.92260000      -2.02650000       2.00440000
H        0.67000000      -2.81580000       1.81300000
