23
Properties=species:S:1:pos:R:3 gdb_91322=T pbc="F F F"
C       -1.11420000       0.95150000       0.16400000
C       -0.13070000      -0.20970000       0.08730000
C        1.10940000      -0.14980000      -0.86190000
C        1.96930000      -0.79610000       0.25750000
O        2.78720000       0.14550000       0.96650000
C        1.76410000       0.33110000       1.99950000
C        2.26100000      -0.26980000       3.31260000
C        1.42640000       1.80600000       2.17070000
C        0.79480000      -0.64820000       1.26260000
H       -0.62240000       1.91450000       0.31450000
H       -1.68840000       1.02010000      -0.76690000
H       -1.83060000       0.81020000       0.98140000
H       -0.70290000      -1.10850000      -0.17300000
H        1.01400000      -0.71370000      -1.79350000
H        1.46100000       0.85910000      -1.09340000
H        2.49360000      -1.72880000       0.03290000
H        3.16130000       0.25460000       3.64790000
H        1.49720000      -0.18350000       4.09380000
H        2.50900000      -1.32780000       3.18750000
H        0.54910000       1.93850000       2.81210000
H        2.27020000       2.32310000       2.64020000
H        1.23780000       2.28800000       1.21080000
H        0.41950000      -1.45580000       1.89290000
