18
Properties=species:S:1:pos:R:3 gdb_122767=T pbc="F F F"
C        0.02200000       1.49950000       0.01080000
N       -0.08980000       0.01270000       0.00300000
H        0.37970000      -0.37960000      -0.81750000
H        0.39500000      -0.38920000       0.80980000
C       -1.50700000      -0.55100000       0.01290000
C       -1.43780000      -2.06880000       0.00320000
N       -2.79200000      -2.52810000       0.01290000
C       -2.82950000      -3.85300000       0.00830000
O       -1.89700000      -4.67130000      -0.00300000
C       -4.22360000      -4.37530000       0.01880000
N       -5.28340000      -4.84030000       0.02640000
H        1.07350000       1.78990000       0.00270000
H       -0.48380000       1.88740000      -0.87340000
H       -0.46710000       1.87680000       0.90890000
H       -1.99540000      -0.16860000       0.91110000
H       -2.01220000      -0.15790000      -0.87130000
H       -0.85660000      -2.40290000      -0.88430000
H       -0.84050000      -2.41370000       0.87570000
