18
Properties=species:S:1:pos:R:3 gdb_65941=T pbc="F F F"
C       -0.31290000       1.58100000       0.13840000
C        0.00590000       0.08810000       0.08160000
N        1.24970000      -0.22700000      -0.70500000
C        1.76410000      -1.13810000       0.35460000
C        0.73110000      -0.54200000       1.30450000
C        0.86690000      -0.02840000       2.66480000
O        0.10970000      -1.21600000       2.36410000
C       -1.15470000      -0.69750000      -0.32940000
C       -2.09590000      -1.34680000      -0.70210000
H        0.57840000       2.13620000       0.44050000
H       -0.62760000       1.93750000      -0.84670000
H       -1.12450000       1.77870000       0.84550000
H        1.05310000      -0.68760000      -1.58710000
H        1.57820000      -2.20530000       0.17940000
H        2.82140000      -0.99000000       0.59540000
H        1.79350000      -0.19230000       3.21330000
H        0.27650000       0.82720000       2.98760000
H       -2.93010000      -1.92370000      -1.01740000
