18
Properties=species:S:1:pos:R:3 gdb_52166=T pbc="F F F"
O        0.09540000       1.28910000       1.18550000
C        0.14640000       1.55260000       0.00160000
N        1.18600000       1.25060000      -0.81810000
C        2.40640000       0.62100000      -0.32970000
C        3.42000000       1.63070000       0.16950000
C        4.91650000       1.38490000       0.26290000
C        5.41530000       0.64320000      -0.97300000
O        4.73700000       1.57530000      -1.85970000
C        4.35130000       2.37580000      -0.73470000
H       -0.67420000       2.06320000      -0.54130000
H        1.16840000       1.59680000      -1.76410000
H        2.11840000      -0.05120000       0.48200000
H        2.82630000       0.02610000      -1.14310000
H        3.05890000       2.23610000       0.99780000
H        5.48060000       1.54270000       1.17180000
H        6.50030000       0.71780000      -1.10540000
H        5.09820000      -0.39460000      -1.12950000
H        4.42840000       3.45270000      -0.83240000
