19
Properties=species:S:1:pos:R:3 gdb_73442=T pbc="F F F"
O       -0.05530000       1.36370000      -0.00090000
C        0.03340000      -0.02990000      -0.02460000
C        1.04480000      -0.68280000      -0.97470000
C        0.22780000      -1.77340000      -1.71540000
C       -0.88340000      -2.16560000      -0.70050000
C       -0.25040000      -2.95820000       0.43530000
C        0.04400000      -2.17150000       1.47340000
C       -0.43070000      -0.77790000       1.24160000
C       -1.24170000      -0.81010000      -0.04350000
H        0.69730000       1.70170000       0.49620000
H        1.43310000       0.07580000      -1.65940000
H        1.89490000      -1.11980000      -0.44140000
H       -0.23680000      -1.34880000      -2.61260000
H        0.84040000      -2.62520000      -2.02900000
H       -1.72220000      -2.67720000      -1.18040000
H        0.03530000      -3.99880000       0.32780000
H        0.57790000      -2.47480000       2.36680000
H       -0.74020000      -0.14310000       2.06540000
H       -2.21320000      -0.34170000      -0.13860000
