18
Properties=species:S:1:pos:R:3 gdb_87926=T pbc="F F F"
C       -0.19540000       1.53030000       0.13730000
C       -0.06980000       0.02730000       0.14940000
N        1.22580000      -0.54140000      -0.27930000
C        0.78380000      -0.73920000       1.09900000
C        1.60960000      -0.10450000       2.21400000
O        1.16930000      -0.73330000       3.42930000
C        0.46270000      -1.86930000       3.17960000
O        0.02290000      -2.55530000       4.05380000
C        0.36200000      -2.07840000       1.67080000
H        0.74940000       2.00750000       0.40840000
H       -0.46560000       1.88070000      -0.86420000
H       -0.97180000       1.86560000       0.83330000
H       -0.96410000      -0.50150000      -0.18090000
H        1.09240000      -1.38870000      -0.82600000
H        2.67850000      -0.30170000       2.07330000
H        1.46140000       0.97150000       2.32080000
H       -0.64190000      -2.40830000       1.39840000
H        1.06390000      -2.87710000       1.39630000
