15
Properties=species:S:1:pos:R:3 gdb_131219=T pbc="F F F"
O        0.10130000       1.35850000       0.43980000
C        0.06890000       0.05320000       0.09840000
C        0.06720000      -0.60890000      -1.11270000
C        0.02290000      -1.97150000      -0.72830000
N        0.00190000      -3.10710000      -1.53060000
C        0.01900000      -3.17310000      -2.89700000
N        0.05860000      -2.15150000      -3.66230000
N       -0.00070000      -2.14630000       0.58920000
N        0.02880000      -0.87170000       1.07790000
H        0.12660000       1.88340000      -0.36640000
H        0.09270000      -0.21470000      -2.11150000
H       -0.02990000      -3.97380000      -1.01810000
H       -0.00600000      -4.21470000      -3.23890000
H        0.06350000      -2.45010000      -4.63430000
H        0.01950000      -0.71140000       2.06940000
