22
Properties=species:S:1:pos:R:3 gdb_88987=T pbc="F F F"
C       -0.64920000       1.00490000      -0.01330000
N        0.07770000      -0.24270000       0.16040000
C        1.47670000      -0.26670000      -0.25300000
C        1.11630000      -0.36040000       1.19060000
C        1.47720000       0.74130000       2.16910000
C        0.56590000       0.77310000       3.38170000
C        0.77400000      -0.21050000       4.52050000
C        1.07140000       1.25640000       4.71030000
O        2.40140000       1.68960000       4.76200000
H       -0.04540000       1.91720000       0.11500000
H       -1.06650000       1.02520000      -1.02560000
H       -1.48460000       1.04370000       0.69390000
H        1.80040000      -1.14080000      -0.81290000
H        1.92220000       0.67200000      -0.58450000
H        1.12490000      -1.35130000       1.64500000
H        2.50830000       0.58860000       2.50440000
H        1.46810000       1.71830000       1.67420000
H       -0.46870000       1.02280000       3.16240000
H       -0.08790000      -0.64510000       5.01490000
H        1.63430000      -0.86860000       4.44420000
H        0.38410000       1.83670000       5.32620000
H        2.77810000       1.38980000       5.59560000
