18
Properties=species:S:1:pos:R:3 gdb_18131=T pbc="F F F"
C        0.02700000       1.56050000      -0.05790000
O        1.40090000       1.92030000      -0.07690000
C        2.05890000       1.03930000       0.82210000
C        1.38350000      -0.33560000       0.64420000
C        1.02820000      -1.12450000       1.92080000
O       -0.28700000      -1.62270000       1.72230000
C       -1.00370000      -0.60300000       1.04140000
C       -0.01060000       0.02200000       0.04070000
H       -0.47880000       2.01370000       0.81210000
H       -0.43230000       1.95980000      -0.96550000
H        3.12320000       1.04790000       0.57430000
H        1.94430000       1.39190000       1.86160000
H        1.95510000      -0.95840000      -0.04610000
H        1.68090000      -1.97990000       2.11160000
H        1.06120000      -0.46240000       2.80310000
H       -1.87500000      -1.06720000       0.57280000
H       -1.36150000       0.15960000       1.75450000
H       -0.12950000      -0.42390000      -0.94830000
