19
Properties=species:S:1:pos:R:3 gdb_77728=T pbc="F F F"
O       -0.19040000       1.33930000      -0.07380000
C       -0.16510000      -0.05220000       0.03310000
C       -0.53870000      -0.75810000       1.31060000
C       -1.61970000       0.01090000       2.09800000
C       -2.54790000      -0.01550000       0.84420000
C       -1.46290000      -0.78620000       0.06590000
C       -1.46490000      -2.22120000      -0.40140000
O       -0.31910000      -2.82340000       0.22540000
C       -0.06040000      -2.17940000       1.48510000
H        0.57050000       1.68650000       0.40370000
H        0.61850000      -0.54800000      -0.54060000
H       -2.01440000      -0.57210000       2.93320000
H       -1.32490000       0.99670000       2.46640000
H       -3.44890000      -0.61400000       0.99630000
H       -2.82810000       0.95120000       0.42200000
H       -2.39910000      -2.71580000      -0.09000000
H       -1.33560000      -2.37330000      -1.47800000
H        1.01150000      -2.30560000       1.67220000
H       -0.61340000      -2.66420000       2.30610000
