17
Properties=species:S:1:pos:R:3 gdb_27788=T pbc="F F F"
C        0.01010000       1.51780000      -0.00890000
C       -0.05760000       0.01890000       0.01610000
C       -1.21840000      -0.69040000      -0.02920000
C       -1.17160000      -2.12320000       0.00250000
N       -2.36960000      -2.81140000       0.01110000
C        0.03960000      -2.77060000       0.07320000
C        1.28500000      -2.05740000       0.12660000
O        2.41270000      -2.52560000       0.19100000
N        1.12720000      -0.64860000       0.09040000
H        0.59060000       1.87080000      -0.86920000
H       -0.98990000       1.94990000      -0.07020000
H        0.49620000       1.90350000       0.89460000
H       -2.16810000      -0.17260000      -0.07490000
H       -3.16200000      -2.34210000      -0.39860000
H       -2.32340000      -3.79190000      -0.21970000
H        0.10220000      -3.85210000       0.09470000
H        1.99960000      -0.13990000       0.12400000
