21
Properties=species:S:1:pos:R:3 gdb_115658=T pbc="F F F"
O        0.06210000       1.41730000      -0.64960000
C       -0.00400000       0.24350000       0.13580000
C       -1.36530000      -0.41550000      -0.02410000
O       -1.61100000      -0.67580000      -1.43360000
C       -1.68990000      -2.09880000      -1.19730000
C       -1.50990000      -1.90920000       0.32450000
C       -0.45880000      -2.75550000       1.09040000
C       -1.62150000      -3.58910000       1.69590000
C       -2.59640000      -2.45270000       1.28450000
H       -0.23920000       1.15580000      -1.52920000
H        0.78720000      -0.47220000      -0.14240000
H        0.16310000       0.53940000       1.17760000
H       -2.14880000       0.23560000       0.38680000
H       -2.65530000      -2.50920000      -1.51970000
H       -0.88250000      -2.64360000      -1.70430000
H        0.28930000      -3.28170000       0.49130000
H        0.06090000      -2.16830000       1.85380000
H       -1.80240000      -4.50820000       1.13190000
H       -1.56060000      -3.84150000       2.75650000
H       -2.78340000      -1.75620000       2.10830000
H       -3.55710000      -2.73260000       0.84340000
