20
Properties=species:S:1:pos:R:3 gdb_39424=T pbc="F F F"
C       -0.04490000       1.45340000      -0.09350000
C        1.19070000       2.31500000       0.25650000
C        2.51460000       1.77110000      -0.24350000
N        3.63360000       1.77830000       0.72250000
C        3.07900000       0.49250000       0.26710000
C        2.36620000      -0.39920000       1.23710000
O        1.37580000       0.15260000       2.10360000
C        0.93470000      -0.69780000       1.03860000
C        0.15130000      -0.08030000      -0.11470000
H       -0.83610000       1.70140000       0.62210000
H       -0.43410000       1.73420000      -1.07970000
H        1.04440000       3.32690000      -0.14050000
H        1.27120000       2.40230000       1.33900000
H        2.76130000       2.00230000      -1.27940000
H        4.51470000       1.96180000       0.24940000
H        3.68010000      -0.08550000      -0.43600000
H        2.99460000      -1.15200000       1.71660000
H        0.57300000      -1.66750000       1.38320000
H       -0.83970000      -0.54600000      -0.15250000
H        0.65140000      -0.37100000      -1.04760000
