19
Properties=species:S:1:pos:R:3 gdb_62187=T pbc="F F F"
C       -0.00040000       1.52360000      -0.17490000
C       -0.03900000      -0.00980000       0.00530000
N        0.73730000      -0.55100000       1.11940000
C        2.18330000      -0.40420000       0.99780000
C        2.88180000      -1.21760000       2.10280000
C        4.33340000      -1.11920000       2.02990000
C        5.52790000      -1.02060000       1.94300000
C       -1.43590000      -0.45810000       0.14790000
N       -2.53980000      -0.77760000       0.26570000
H        1.02660000       1.85670000      -0.34350000
H       -0.60670000       1.82970000      -1.03190000
H       -0.39050000       2.02410000       0.71640000
H        0.35120000      -0.47670000      -0.90890000
H        0.40850000      -0.14890000       1.99230000
H        2.48460000      -0.79930000       0.02080000
H        2.53960000       0.63750000       1.04310000
H        2.53870000      -0.86320000       3.08440000
H        2.56180000      -2.26270000       2.02520000
H        6.58510000      -0.94440000       1.87880000
