14
Properties=species:S:1:pos:R:3 gdb_130967=T pbc="F F F"
O        0.25700000      -0.19820000       0.36340000
C        0.29030000       0.76180000      -0.35910000
C        0.81490000       2.12800000       0.06750000
N        0.71810000       3.06270000      -1.03010000
C        1.11940000       4.25200000      -0.82820000
N        1.66380000       4.91050000       0.26560000
N        1.94260000       6.22170000      -0.01050000
N        1.61150000       6.44370000      -1.21070000
N        1.11530000       5.29560000      -1.73730000
H       -0.06330000       0.73380000      -1.41330000
H        0.23030000       2.43180000       0.95420000
H        1.84950000       1.97590000       0.42330000
H        1.86020000       4.54330000       1.17950000
H        0.79400000       5.26390000      -2.68920000
