18
Properties=species:S:1:pos:R:3 gdb_83125=T pbc="F F F"
C        0.02120000       1.53700000      -0.00240000
C        0.06370000       0.03090000       0.02670000
C       -0.82990000      -0.77940000       0.95710000
O       -1.59110000      -1.88080000       0.57490000
C        0.65550000      -0.83250000       1.14940000
C        1.33580000      -1.99560000       0.45840000
O        0.90830000      -1.94500000      -0.92100000
C        0.41230000      -0.69360000      -1.22560000
N        0.25920000      -0.25590000      -2.39900000
H        1.00100000       1.95720000      -0.25110000
H       -0.68750000       1.87730000      -0.76240000
H       -0.28750000       1.93910000       0.96690000
H       -1.38960000      -0.18190000       1.66920000
H       -1.16730000      -2.31490000      -0.17540000
H        1.12610000      -0.39740000       2.02360000
H        2.42750000      -1.91230000       0.49610000
H        1.04020000      -2.97210000       0.85460000
H        0.60460000      -0.92850000      -3.08510000
