21
Properties=species:S:1:pos:R:3 gdb_36944=T pbc="F F F"
C        0.18560000       1.57060000       0.35000000
C        1.00480000       0.40570000      -0.17310000
C       -0.47140000       0.25490000       0.09580000
O       -0.87910000      -0.45740000       1.22960000
C       -0.97170000      -1.85210000       1.01720000
C       -1.34840000      -2.50330000       2.36440000
C       -2.76260000      -3.07670000       2.12320000
C       -3.20370000      -2.33820000       0.85420000
O       -1.99910000      -2.17690000       0.10470000
H        0.32840000       1.84530000       1.38890000
H       -0.03680000       2.39810000      -0.31420000
H        1.34820000       0.42450000      -1.20150000
H        1.68390000      -0.06800000       0.52710000
H       -1.14080000       0.15590000      -0.75430000
H       -0.03820000      -2.21640000       0.57100000
H       -0.62970000      -3.27420000       2.64890000
H       -1.34200000      -1.73130000       3.13640000
H       -2.71700000      -4.15260000       1.93120000
H       -3.43920000      -2.91260000       2.96520000
H       -3.90940000      -2.89470000       0.23310000
H       -3.64160000      -1.35920000       1.09540000
