19
Properties=species:S:1:pos:R:3 gdb_41673=T pbc="F F F"
C        0.05360000       1.56240000      -0.07170000
O        1.41820000       1.96470000      -0.15670000
C        2.18660000       1.71750000       1.00580000
C        1.73830000       0.46530000       1.82440000
C        0.68010000       0.79790000       2.86270000
C       -0.47930000       0.18020000       2.62420000
C       -0.40060000      -0.65330000       1.39600000
C       -0.04260000       0.05490000       0.08230000
C        1.03700000      -0.56660000       0.92830000
H       -0.45780000       2.09150000       0.74420000
H       -0.39700000       1.87960000      -1.01520000
H        3.21570000       1.58380000       0.65590000
H        2.17360000       2.59970000       1.66660000
H        2.63520000       0.05310000       2.30090000
H        0.86260000       1.51740000       3.65390000
H       -1.38510000       0.28900000       3.20960000
H       -0.97240000      -1.57090000       1.31700000
H       -0.31370000      -0.49120000      -0.81570000
H        1.58330000      -1.42840000       0.56590000
