16
Properties=species:S:1:pos:R:3 gdb_29318=T pbc="F F F"
C       -0.04340000       1.52160000       0.01170000
C       -0.01460000       0.02460000       0.00430000
C       -0.01240000      -0.81200000      -1.09580000
N        0.00190000      -2.10460000      -0.68050000
C        0.01640000      -2.13720000       0.70980000
C        0.05020000      -3.32430000       1.45580000
N        0.08540000      -4.29260000       2.09790000
C        0.00100000      -0.81540000       1.15390000
N       -0.06820000      -0.38490000       2.47250000
H        0.85520000       1.95010000       0.47510000
H       -0.10160000       1.91870000      -1.00530000
H       -0.90620000       1.90550000       0.56910000
H       -0.02430000      -0.56520000      -2.14610000
H        0.00250000      -2.91830000      -1.26890000
H        0.18820000      -1.08710000       3.15350000
H        0.41330000       0.48550000       2.64980000
