18
Properties=species:S:1:pos:R:3 gdb_127149=T pbc="F F F"
C        0.38200000       1.29920000      -0.13470000
N       -0.02920000      -0.08940000       0.03110000
C        0.55080000      -0.67040000       1.23330000
C       -1.48100000      -0.24070000       0.00070000
C       -2.02630000      -0.08100000      -1.38490000
C       -1.49190000      -0.39100000      -2.59590000
O       -2.37010000      -0.09460000      -3.55050000
N       -3.52090000       0.42940000      -2.88330000
N       -3.28290000       0.42330000      -1.64860000
H        1.47250000       1.35310000      -0.20560000
H       -0.04020000       1.70930000      -1.05560000
H        0.06010000       1.94350000       0.70510000
H        0.21720000      -0.17330000       2.16380000
H        0.28800000      -1.73060000       1.30120000
H        1.64120000      -0.59230000       1.18580000
H       -1.72110000      -1.24620000       0.36740000
H       -2.00610000       0.46540000       0.67000000
H       -0.54140000      -0.79830000      -2.89600000
