17
Properties=species:S:1:pos:R:3 gdb_97603=T pbc="F F F"
O        0.30600000       0.91110000       0.81570000
C       -0.05360000       0.13700000      -0.31930000
C       -1.37070000      -0.49020000      -0.20880000
C       -2.46960000      -0.97760000      -0.11710000
C       -3.78740000      -1.59540000       0.05500000
O       -3.69700000      -2.93640000       0.50640000
C       -4.66810000      -0.72240000       0.99350000
C       -6.02330000      -1.23500000       1.13100000
C       -7.14510000      -1.65400000       1.22790000
H       -0.39380000       1.55670000       0.95970000
H       -0.01450000       0.73410000      -1.24430000
H        0.71930000      -0.63410000      -0.41050000
H       -4.29200000      -1.65940000      -0.91560000
H       -3.10790000      -2.95020000       1.26930000
H       -4.17810000      -0.66800000       1.97420000
H       -4.68760000       0.30090000       0.59960000
H       -8.13460000      -2.02760000       1.32010000
