23
Properties=species:S:1:pos:R:3 gdb_70606=T pbc="F F F"
C       -0.57410000       1.29100000       0.25160000
C        0.01870000      -0.07370000       0.01700000
O       -0.19380000      -1.02490000       1.08090000
C        1.15180000      -0.61650000       0.77980000
C        1.90620000      -1.62710000      -0.05580000
C        0.89260000      -1.99630000      -1.16250000
C       -0.02090000      -0.74810000      -1.36680000
C       -1.44610000      -1.15790000      -1.76060000
C        0.58030000       0.19100000      -2.42810000
H       -0.07240000       2.05620000      -0.34820000
H       -1.63890000       1.30730000      -0.00510000
H       -0.47950000       1.56050000       1.30630000
H        1.65050000      -0.05250000       1.56570000
H        2.80850000      -1.15530000      -0.46410000
H        2.22950000      -2.49840000       0.52280000
H        1.37980000      -2.29580000      -2.09470000
H        0.28340000      -2.83840000      -0.82690000
H       -1.90360000      -1.75990000      -0.96990000
H       -2.08370000      -0.28470000      -1.93860000
H       -1.43940000      -1.75160000      -2.68120000
H        0.62760000      -0.31550000      -3.39790000
H       -0.02330000       1.09470000      -2.55880000
H        1.59700000       0.50300000      -2.16460000
