21
Properties=species:S:1:pos:R:3 gdb_82839=T pbc="F F F"
C       -0.18340000       1.54200000       0.00380000
N        0.10140000       0.12390000       0.01640000
C        0.97660000      -0.49640000      -0.99270000
C        2.42410000       0.05150000      -1.03420000
N        2.80120000      -0.68770000       0.22020000
C        2.23450000       0.03500000       1.41130000
C        0.81130000      -0.51070000       1.13990000
C        1.48470000      -1.47440000       0.11280000
C        1.48720000      -2.96990000       0.10290000
H        0.70430000       2.19360000       0.07750000
H       -0.70810000       1.79720000      -0.92360000
H       -0.84590000       1.78530000       0.84190000
H        0.48100000      -0.76210000      -1.93210000
H        2.99450000      -0.34680000      -1.88070000
H        2.57220000       1.13590000      -0.99550000
H        2.66810000      -0.37520000       2.33020000
H        2.38560000       1.11970000       1.41040000
H        0.17710000      -0.78860000       1.98800000
H        0.46660000      -3.35790000       0.01730000
H        2.07290000      -3.35290000      -0.73970000
H        1.92940000      -3.36510000       1.02380000
