21
Properties=species:S:1:pos:R:3 gdb_37981=T pbc="F F F"
C       -0.02220000       1.69600000      -0.00900000
C        1.46480000       1.23390000       0.04720000
C        0.99660000       0.20410000       1.12730000
C        1.84040000      -0.98060000       1.58980000
C        2.79700000      -1.58180000       0.56730000
O        2.12050000      -2.01790000      -0.59320000
C        1.90160000      -0.98580000      -1.52860000
C        1.07510000       0.21630000      -1.08190000
C       -0.06830000       0.13790000      -0.02300000
H       -0.41360000       2.18790000       0.88500000
H       -0.34280000       2.20410000      -0.92190000
H        2.34700000       1.87710000       0.07950000
H        0.58820000       0.69310000       2.01980000
H        2.43170000      -0.66600000       2.46120000
H        1.16660000      -1.77030000       1.94710000
H        3.58570000      -0.85810000       0.30110000
H        3.29160000      -2.46180000       0.99360000
H        2.86780000      -0.61780000      -1.92070000
H        1.37990000      -1.46550000      -2.36470000
H        0.77310000       0.73190000      -2.00380000
H       -0.95840000      -0.49300000      -0.05810000
