17
Properties=species:S:1:pos:R:3 gdb_52447=T pbc="F F F"
O        0.79890000       0.20740000      -0.67290000
C        0.78010000       1.40040000      -0.69210000
O        0.84940000       2.13880000       0.43900000
C        0.92610000       3.55710000       0.29530000
C        2.36830000       4.01690000       0.18610000
O        2.86260000       3.57820000      -1.06020000
C        4.25630000       3.79290000      -1.21210000
C        4.68740000       3.33050000      -2.52310000
C        5.06780000       2.95730000      -3.59870000
H        0.68990000       2.01670000      -1.60390000
H        0.36420000       3.88690000      -0.58710000
H        0.45930000       3.98220000       1.18690000
H        2.41310000       5.11610000       0.26730000
H        2.95410000       3.59100000       1.01580000
H        4.49180000       4.86450000      -1.09870000
H        4.81210000       3.25900000      -0.42380000
H        5.39930000       2.62110000      -4.55020000
