17
Properties=species:S:1:pos:R:3 gdb_46200=T pbc="F F F"
O       -0.12540000       0.06660000      -0.27330000
C       -0.04560000       1.22400000      -0.00670000
O       -1.04090000       2.04150000       0.47840000
C       -0.15530000       3.20650000       0.51940000
C        0.99290000       2.34090000      -0.02100000
C        2.43230000       2.23170000       0.55230000
C        2.80440000       1.46380000      -0.75170000
C        1.93430000       2.67210000      -1.21130000
C        2.74860000       3.55030000      -0.21480000
H       -0.52700000       3.99570000      -0.13850000
H       -0.05230000       3.57570000       1.54260000
H        2.69770000       1.97430000       1.57790000
H        3.85760000       1.50090000      -1.03980000
H        2.37420000       0.47050000      -0.87830000
H        1.62360000       2.92420000      -2.22540000
H        2.27340000       4.46570000       0.14800000
H        3.79800000       3.72040000      -0.46860000
