18
Properties=species:S:1:pos:R:3 gdb_66486=T pbc="F F F"
C        0.10250000       1.53340000       0.07040000
C       -0.05950000       0.06050000      -0.08860000
C        0.70160000      -0.97390000      -0.83180000
N        0.72920000      -0.96330000       0.67250000
C       -0.51560000      -1.80600000       0.93510000
C       -0.48160000      -2.98920000      -0.04630000
C       -0.52090000      -1.86370000      -1.11230000
O       -0.82300000      -2.04310000      -2.44970000
C       -1.27810000      -0.90730000      -0.08060000
H        1.16530000       1.79090000       0.11750000
H       -0.34490000       2.07260000      -0.77180000
H       -0.37290000       1.88770000       0.99210000
H        1.64240000      -0.93030000      -1.36760000
H       -0.74860000      -1.91540000       1.99220000
H        0.37160000      -3.67280000      -0.02460000
H       -1.42370000      -3.54940000      -0.01580000
H       -1.63600000      -2.55480000      -2.51430000
H       -2.34420000      -0.69290000      -0.10010000
