18
Properties=species:S:1:pos:R:3 gdb_33196=T pbc="F F F"
C        0.01110000       1.49430000      -0.11410000
C       -0.07960000       0.00060000       0.20960000
C       -1.47790000      -0.54660000      -0.02050000
O       -1.46230000      -1.94950000       0.31770000
C       -2.59190000      -2.62210000       0.12140000
C       -2.86110000      -3.84170000      -0.40550000
N       -4.22390000      -4.09630000      -0.26840000
C       -4.69460000      -3.04340000       0.30640000
O       -3.76510000      -2.08810000       0.58890000
H        1.02350000       1.86860000       0.06020000
H       -0.24090000       1.69320000      -1.16140000
H       -0.67220000       2.08090000       0.50940000
H        0.62610000      -0.56720000      -0.40690000
H        0.19790000      -0.18070000       1.25400000
H       -2.21420000      -0.03070000       0.60600000
H       -1.78320000      -0.43730000      -1.06980000
H       -2.18140000      -4.54240000      -0.85960000
H       -5.71340000      -2.81790000       0.57830000
