21
Properties=species:S:1:pos:R:3 gdb_114244=T pbc="F F F"
C        0.35480000       1.67820000      -0.55650000
O       -0.31660000       0.43970000      -0.50550000
C        0.45340000      -0.62670000      -0.99030000
C        1.59790000      -1.18920000      -0.08690000
C        1.03020000      -2.58750000      -0.35870000
C        1.81160000      -3.75420000      -0.91030000
C        1.23510000      -3.81700000       0.47460000
O        2.15800000      -3.77770000       1.52590000
C       -0.26670000      -1.99240000      -0.92430000
H        1.26260000       1.68180000       0.06560000
H        0.64410000       1.94130000      -1.58640000
H       -0.33270000       2.43840000      -0.17800000
H        0.82350000      -0.40370000      -2.00280000
H        2.62930000      -0.99180000      -0.38730000
H        1.46100000      -0.87600000       0.95460000
H        1.36060000      -4.36830000      -1.68360000
H        2.88950000      -3.64660000      -0.97770000
H        0.37660000      -4.47110000       0.63670000
H        1.76870000      -3.26360000       2.24160000
H       -1.07710000      -1.96170000      -0.18890000
H       -0.64890000      -2.39790000      -1.86420000
