16
Properties=species:S:1:pos:R:3 gdb_30077=T pbc="F F F"
C       -0.77490000       0.95850000       0.64890000
N       -0.20690000      -0.30550000       0.20770000
C       -0.23400000      -0.80060000      -1.08270000
C        0.49000000      -1.96050000      -1.05970000
N        0.95510000      -2.21150000       0.20920000
C        0.51180000      -1.20900000       0.93320000
N        0.82620000      -1.05580000       2.29140000
C       -0.06810000      -0.83820000       3.30950000
O       -1.23640000      -0.55450000       3.17600000
H       -0.02990000       1.52300000       1.21660000
H       -1.05340000       1.53710000      -0.23290000
H       -1.64330000       0.79230000       1.28680000
H       -0.76240000      -0.28210000      -1.86550000
H        0.69890000      -2.63240000      -1.87760000
H        1.70870000      -1.47600000       2.54710000
H        0.42600000      -0.92760000       4.29570000
