19
Properties=species:S:1:pos:R:3 gdb_80760=T pbc="F F F"
C       -0.05740000       1.55220000      -0.02330000
C        0.08920000       0.04850000      -0.09040000
C        0.66730000      -0.72860000      -1.20820000
C        1.83030000       0.00130000      -1.87130000
C        2.47290000       0.06470000      -0.46610000
N        1.33810000      -0.70470000       0.16230000
O        2.52910000      -0.85520000      -2.76170000
C        3.12070000      -0.30060000      -3.83840000
N        3.83930000      -1.00610000      -4.59760000
H        0.69560000       2.09500000      -0.59850000
H       -1.03890000       1.84140000      -0.41300000
H        0.00170000       1.89550000       1.01500000
H       -0.73090000      -0.46980000       0.40440000
H        0.21770000      -1.62660000      -1.61950000
H        1.59680000       0.94720000      -2.37570000
H        3.37950000      -0.54120000      -0.42770000
H        2.66790000       1.04740000      -0.02640000
H        2.89460000       0.76860000      -3.95790000
H        4.18790000      -0.44110000      -5.36890000
