16
Properties=species:S:1:pos:R:3 gdb_56122=T pbc="F F F"
C       -0.14070000       1.42320000       0.01140000
C        0.10270000      -0.05670000       0.00120000
N        1.26590000      -0.55640000      -0.01320000
O       -1.10060000      -0.71610000       0.00960000
C       -1.08700000      -2.11580000       0.00170000
C       -2.51560000      -2.63760000       0.01290000
O       -3.49620000      -1.94770000       0.02630000
C       -2.61790000      -4.18290000       0.00550000
O       -3.67180000      -4.75270000       0.01270000
H        0.81230000       1.94960000       0.00640000
H       -0.73150000       1.71320000      -0.86280000
H       -0.71720000       1.70350000       0.89810000
H        1.27340000      -1.57500000      -0.01880000
H       -0.57480000      -2.51840000      -0.88900000
H       -0.55730000      -2.52820000       0.87750000
H       -1.64810000      -4.73130000      -0.00700000
