19
Properties=species:S:1:pos:R:3 gdb_51662=T pbc="F F F"
N       -0.39370000       1.27990000       0.15760000
C       -0.22860000       0.04310000      -0.02430000
O       -1.02260000      -0.84420000       0.61070000
C       -0.90210000      -2.21260000       0.26010000
C       -1.35410000      -3.18410000       1.37140000
N       -2.31340000      -3.86980000       0.44630000
C       -3.70850000      -3.33200000       0.57640000
C       -3.43650000      -2.21550000      -0.46860000
C       -2.02370000      -2.82040000      -0.61820000
H        0.30150000       1.80450000      -0.36920000
H        0.53230000      -0.43120000      -0.66020000
H        0.10400000      -2.41230000      -0.12540000
H       -0.58030000      -3.85470000       1.75510000
H       -1.82970000      -2.67150000       2.21440000
H       -4.44720000      -4.07510000       0.26220000
H       -3.96200000      -3.00070000       1.58900000
H       -4.04940000      -2.26200000      -1.37030000
H       -3.44750000      -1.19400000      -0.08440000
H       -1.73040000      -3.17190000      -1.61140000
