21
Properties=species:S:1:pos:R:3 gdb_116515=T pbc="F F F"
O        0.10600000       1.40210000       0.27900000
C        0.07570000       0.01000000       0.05470000
C       -1.35690000      -0.51030000      -0.06320000
C       -1.40960000      -2.03560000      -0.20370000
C       -2.73680000      -2.62690000      -0.72770000
C       -3.99960000      -1.83450000      -0.35410000
O       -3.99310000      -1.33460000       0.97710000
C       -3.40330000      -0.07510000       1.11980000
O       -2.00020000      -0.08610000       1.14640000
H       -0.52020000       1.55680000       0.99710000
H        0.61340000      -0.18100000      -0.87970000
H        0.58900000      -0.54370000       0.85850000
H       -1.83700000      -0.00730000      -0.91840000
H       -0.59400000      -2.36300000      -0.85990000
H       -1.19370000      -2.44120000       0.78970000
H       -2.71370000      -2.69760000      -1.82240000
H       -2.82670000      -3.65370000      -0.35800000
H       -4.14230000      -0.99610000      -1.05270000
H       -4.88040000      -2.47880000      -0.44090000
H       -3.75590000       0.59370000       0.31300000
H       -3.71390000       0.31030000       2.09380000
