13
Properties=species:S:1:pos:R:3 gdb_15290=T pbc="F F F"
N        0.08980000      -1.09390000      -0.51960000
C        0.06920000      -0.02310000      -0.08850000
C        0.02400000       1.34120000       0.44320000
N        1.32060000       1.99350000       0.24920000
C        1.54710000       2.65550000      -1.02320000
C        1.34300000       3.46430000       0.22530000
C        0.12450000       4.22320000       0.37040000
N       -0.85480000       4.82210000       0.51330000
H       -0.81490000       1.87410000      -0.03110000
H       -0.18510000       1.29910000       1.51730000
H        2.54700000       2.56230000      -1.43440000
H        0.73920000       2.66980000      -1.75170000
H        2.20040000       3.90310000       0.72680000
