23
Properties=species:S:1:pos:R:3 gdb_106496=T pbc="F F F"
C       -0.11670000       1.57050000       0.01580000
C        0.03840000       0.04730000      -0.03270000
C        0.80600000      -0.46240000      -1.22730000
C        2.17560000       0.08600000      -1.71220000
C        1.57130000      -0.42480000      -3.03360000
C        1.56130000      -1.95670000      -2.86910000
C        0.92600000      -2.00140000      -1.43970000
C        1.71720000      -2.77580000      -0.38750000
O        0.25060000      -0.05500000      -2.53050000
H        0.84950000       2.06830000       0.14610000
H       -0.56230000       1.93880000      -0.91180000
H       -0.75780000       1.86910000       0.85040000
H        0.53420000      -0.31270000       0.87760000
H       -0.95330000      -0.42420000      -0.04960000
H        2.21430000       1.17470000      -1.67740000
H        3.10150000      -0.35680000      -1.33640000
H        1.81230000       0.00390000      -4.00650000
H        0.94110000      -2.44180000      -3.62590000
H        2.56430000      -2.39390000      -2.90720000
H       -0.09030000      -2.40520000      -1.49350000
H        2.73790000      -2.39320000      -0.28010000
H        1.23640000      -2.72450000       0.59550000
H        1.79200000      -3.83390000      -0.65940000
