23
Properties=species:S:1:pos:R:3 gdb_62675=T pbc="F F F"
C       -0.21630000       1.59910000       0.05430000
C        0.03770000       0.08640000       0.03450000
C       -1.17160000      -0.63770000      -0.56080000
C        1.31790000      -0.67080000      -0.32440000
C        2.67880000      -0.15250000       0.19710000
C        2.64180000       1.15430000       0.92380000
C        2.10710000      -0.08590000       1.60590000
C        0.76020000      -0.70480000       1.10090000
C        0.19070000      -1.83220000       1.91820000
H        0.27410000       2.11350000      -0.77870000
H       -1.29100000       1.78730000      -0.04180000
H        0.10180000       2.06710000       0.98650000
H       -1.39950000      -0.22410000      -1.54970000
H       -1.00600000      -1.71090000      -0.68350000
H       -2.05970000      -0.50220000       0.06730000
H        1.27090000      -1.45320000      -1.07390000
H        3.60780000      -0.61000000      -0.12030000
H        3.60990000       1.45230000       1.32010000
H        2.04100000       1.99170000       0.60500000
H        2.56050000      -0.44750000       2.52120000
H       -0.17270000      -1.46140000       2.88590000
H       -0.64370000      -2.33370000       1.42290000
H        0.95640000      -2.58880000       2.12950000
