12
Properties=species:S:1:pos:R:3 gdb_49128=T pbc="F F F"
N        0.21510000       1.31690000      -0.50450000
C        0.12300000       0.08610000      -0.24720000
O        1.17450000      -0.80430000      -0.18640000
C        0.67470000      -2.07330000       0.12410000
O        1.38300000      -3.02470000       0.23580000
C       -0.79600000      -1.93630000       0.26150000
C       -1.12130000      -0.65410000       0.04060000
C       -2.47080000      -0.03330000       0.06720000
O       -3.46900000      -0.66840000       0.30630000
H        1.18400000       1.59520000      -0.66880000
H       -1.44840000      -2.76280000       0.50040000
H       -2.49030000       1.05020000      -0.14820000
