19
Properties=species:S:1:pos:R:3 gdb_91126=T pbc="F F F"
O       -0.09040000       1.39780000      -0.00680000
C       -0.03100000      -0.02180000       0.01550000
C        0.51480000      -0.61450000       1.35570000
C       -0.74630000      -1.31780000       1.85170000
C       -1.33100000      -2.03710000       0.58450000
C       -2.76170000      -2.35680000       1.00790000
O       -3.12100000      -1.12670000       1.66800000
C       -1.92920000      -0.35840000       1.52400000
C       -1.45130000      -0.56620000       0.05490000
H        0.81080000       1.73460000      -0.02050000
H        0.52730000      -0.39220000      -0.85610000
H        1.35060000      -1.30580000       1.20790000
H        0.84560000       0.18780000       2.02300000
H       -0.71590000      -1.83100000       2.81430000
H       -0.76930000      -2.80210000       0.04580000
H       -3.43870000      -2.54550000       0.16560000
H       -2.82910000      -3.19670000       1.71050000
H       -2.05340000       0.62410000       1.97490000
H       -2.10900000      -0.31850000      -0.77870000
