16
Properties=species:S:1:pos:R:3 gdb_17873=T pbc="F F F"
O        0.00020000       0.03680000      -0.03590000
C       -0.01520000       1.23360000      -0.00320000
C       -1.09950000       2.31120000       0.08640000
C       -0.02930000       3.16250000       0.84140000
C        1.04220000       2.33960000       0.05730000
C        1.14010000       2.92880000      -1.37700000
O       -0.06990000       3.56970000      -1.74510000
C       -1.25200000       2.89710000      -1.34450000
H       -2.06520000       2.07470000       0.53560000
H       -0.04600000       4.23740000       0.65860000
H       -0.01200000       2.95200000       1.91170000
H        2.02570000       2.12890000       0.48000000
H        1.91340000       3.70210000      -1.42210000
H        1.40790000       2.13310000      -2.08960000
H       -1.51790000       2.09440000      -2.04980000
H       -2.04650000       3.64960000      -1.36830000
