19
Properties=species:S:1:pos:R:3 gdb_63415=T pbc="F F F"
C        0.29740000       1.39010000      -0.19570000
C       -0.06480000      -0.08310000       0.03070000
C       -1.58210000      -0.26020000       0.18110000
O        0.37580000      -0.84510000      -1.12160000
C        1.28410000      -1.86620000      -0.74870000
C        2.62380000      -1.66140000      -1.46070000
O        3.42220000      -2.53770000      -1.65650000
C        1.44960000      -1.71900000       0.74480000
C        0.70300000      -0.70870000       1.17170000
H        1.37770000       1.50630000      -0.31550000
H       -0.19470000       1.76100000      -1.09960000
H       -0.02650000       2.00610000       0.64940000
H       -2.09160000       0.10590000      -0.71520000
H       -1.83310000      -1.31530000       0.31690000
H       -1.95790000       0.30020000       1.04330000
H        0.90310000      -2.85910000      -1.03160000
H        2.79830000      -0.60370000      -1.76250000
H        2.10020000      -2.35980000       1.32480000
H        0.60910000      -0.36120000       2.19310000
