12
Properties=species:S:1:pos:R:3 gdb_129263=T pbc="F F F"
N       -0.06500000       1.20220000       0.54280000
C       -0.04040000       0.05490000       0.01290000
O        1.13150000      -0.52050000      -0.45540000
N        1.14200000      -1.77630000      -1.03570000
C        0.00830000      -2.38450000      -1.11770000
C       -0.00470000      -3.75360000      -1.74570000
O        0.96050000      -4.32200000      -2.17620000
N       -1.23780000      -1.92350000      -0.68660000
C       -1.24320000      -0.76000000      -0.15050000
H        0.86420000       1.62570000       0.57430000
H       -1.02630000      -4.18460000      -1.76540000
H       -2.17400000      -0.32870000       0.21160000
