17
Properties=species:S:1:pos:R:3 gdb_31013=T pbc="F F F"
C        0.80990000       1.52270000       0.60460000
C        0.14410000       0.23840000       0.28010000
N       -0.87110000      -0.28590000       0.85750000
C       -1.10750000      -1.49700000       0.17760000
C       -2.07320000      -2.38290000       0.43740000
N       -1.80220000      -4.95150000      -1.74190000
H       -1.05170000      -4.30250000      -1.97340000
H       -1.36130000      -5.84830000      -1.55730000
H       -2.34770000      -5.07600000      -2.59040000
C       -0.08130000      -1.62350000      -0.89680000
O        0.14760000      -2.44900000      -1.73260000
O        0.69160000      -0.46920000      -0.77180000
H        1.86130000       1.35200000       0.85850000
H        0.79040000       2.19050000      -0.26290000
H        0.29960000       1.99380000       1.44410000
H       -2.17270000      -3.29420000      -0.14900000
H       -2.77080000      -2.19290000       1.24550000
