25
Properties=species:S:1:pos:R:3 gdb_100669=T pbc="F F F"
C        0.03740000       1.53120000       0.18120000
C       -0.05050000       0.01130000      -0.04700000
C       -1.52440000      -0.41430000      -0.00110000
O       -1.99500000      -0.18980000       1.32450000
C        0.69160000      -0.51360000      -1.31910000
C        0.82950000      -2.04970000      -1.25480000
C       -0.03030000      -0.12010000      -2.62390000
C        2.11210000       0.08720000      -1.34020000
O        2.84630000      -0.48930000      -2.41430000
H        1.05230000       1.85820000       0.42170000
H       -0.29960000       2.09500000      -0.69590000
H       -0.60640000       1.80260000       1.02090000
H        0.42090000      -0.47630000       0.81780000
H       -2.10690000       0.17500000      -0.72610000
H       -1.63470000      -1.47330000      -0.27070000
H       -2.94190000      -0.35450000       1.33710000
H       -0.14080000      -2.55010000      -1.31130000
H        1.44130000      -2.40790000      -2.08500000
H        1.31400000      -2.36100000      -0.32230000
H       -0.21790000       0.95750000      -2.67640000
H        0.58730000      -0.39180000      -3.48330000
H       -0.99150000      -0.63340000      -2.72410000
H        2.05490000       1.17710000      -1.46230000
H        2.60680000      -0.11600000      -0.37570000
H        3.69470000      -0.04160000      -2.46940000
