20
Properties=species:S:1:pos:R:3 gdb_36799=T pbc="F F F"
N       -0.04450000      -1.09070000      -0.09940000
C        0.02240000       0.04420000       0.10690000
C        0.12150000       1.47960000       0.35980000
C        1.39680000       2.09900000      -0.24190000
C        1.47890000       3.59330000       0.04360000
O        2.66770000       4.08140000      -0.54380000
C        2.85980000       5.44880000      -0.35040000
C        3.48730000       5.93010000       0.93400000
C        4.27300000       5.92740000      -0.36370000
H       -0.77140000       1.96460000      -0.05270000
H        0.09240000       1.64140000       1.44400000
H        2.28080000       1.60400000       0.17130000
H        1.41500000       1.93620000      -1.32360000
H        0.60010000       4.11330000      -0.37550000
H        1.47870000       3.78280000       1.12950000
H        2.09410000       6.07580000      -0.80980000
H        3.16500000       6.87740000       1.35180000
H        3.74900000       5.17370000       1.66570000
H        5.03650000       5.16630000      -0.47560000
H        4.49520000       6.87200000      -0.84670000
