12
Properties=species:S:1:pos:R:3 gdb_130591=T pbc="F F F"
O        0.02710000      -0.02540000       0.00360000
C       -0.00010000       1.17610000       0.01000000
C       -1.21380000       2.08650000       0.03120000
C       -0.82960000       3.37530000       0.03240000
C        0.65420000       3.43580000       0.01230000
C        1.13860000       2.16720000      -0.00070000
O        2.46460000       2.13980000      -0.01900000
N        2.91020000       3.46990000      -0.01850000
C        1.82420000       4.22530000       0.00030000
H       -2.21980000       1.69310000       0.04310000
H       -1.48190000       4.23870000       0.04560000
H        1.95150000       5.29830000       0.00390000
