14
Properties=species:S:1:pos:R:3 gdb_128716=T pbc="F F F"
C       -0.01320000       1.39900000       0.00870000
O        0.00390000      -0.03400000      -0.00170000
C        0.60040000      -0.60040000      -1.04760000
N        1.15130000       0.08430000      -2.03020000
O        1.65590000      -0.86460000      -2.90840000
C        1.39180000      -2.09260000      -2.42480000
C        1.83170000      -3.27130000      -3.18560000
O        2.42520000      -3.23130000      -4.23420000
C        0.72140000      -2.00430000      -1.24180000
H        1.00600000       1.79630000       0.00960000
H       -0.54310000       1.78410000      -0.86740000
H       -0.53350000       1.68070000       0.92380000
H        1.56010000      -4.22860000      -2.69220000
H        0.36730000      -2.79740000      -0.60530000
