22
Properties=species:S:1:pos:R:3 gdb_82824=T pbc="F F F"
C       -0.30270000       1.53080000       0.05030000
C        0.05880000       0.05700000       0.01800000
N        1.02800000      -0.43310000      -1.03300000
C        2.31430000       0.34730000      -1.02880000
C        2.83440000      -0.38420000       0.22040000
C        2.16440000       0.12220000       1.52280000
C        0.84820000      -0.63060000       1.16530000
C        0.07810000      -1.28930000       2.28750000
C        1.63230000      -1.36060000       0.02030000
H        0.54110000       2.17330000       0.31540000
H       -0.67490000       1.85000000      -0.92940000
H       -1.09590000       1.70820000       0.78440000
H       -0.86260000      -0.51770000      -0.14820000
H        2.87970000       0.08940000      -1.93070000
H        2.21390000       1.43690000      -0.98940000
H        3.88520000      -0.67390000       0.26340000
H        2.62720000      -0.33970000       2.40100000
H        2.12030000       1.20370000       1.68950000
H       -0.36830000      -0.53810000       2.95120000
H       -0.73440000      -1.91560000       1.90190000
H        0.72740000      -1.92290000       2.90240000
H        1.66920000      -2.43410000      -0.16750000
