11
Properties=species:S:1:pos:R:3 gdb_48217=T pbc="F F F"
O       -0.04820000      -0.03310000      -0.19090000
C        0.05570000       1.07650000       0.22650000
C        1.40730000       1.89020000       0.15270000
C        1.25320000       2.73210000      -1.17470000
O        0.84860000       3.85120000      -1.18060000
C        1.50270000       2.76460000       1.31790000
N        1.52420000       3.44420000       2.25040000
C        2.55090000       0.99250000       0.01880000
N        3.45670000       0.29570000      -0.14210000
H       -0.76910000       1.66940000       0.66270000
H        1.51950000       2.14960000      -2.07560000
