18
Properties=species:S:1:pos:R:3 gdb_43642=T pbc="F F F"
O       -0.21650000      -0.04810000       0.10640000
C       -0.05700000       1.15350000       0.06860000
N       -1.04480000       2.11640000       0.08960000
C       -0.54360000       3.47110000      -0.02440000
C        0.94980000       3.23190000      -0.06800000
C        1.22120000       1.92810000      -0.01420000
C       -1.07670000       4.21620000      -1.23550000
C       -2.39480000       4.94620000      -1.15190000
C       -1.10500000       5.72290000      -1.23680000
H       -2.02100000       1.87680000       0.05110000
H       -0.79540000       4.05860000       0.87470000
H        1.65070000       4.05350000      -0.14040000
H        2.18520000       1.44000000      -0.03080000
H       -0.84790000       3.72860000      -2.17870000
H       -3.04630000       4.92800000      -2.01810000
H       -2.91910000       4.94390000      -0.20140000
H       -0.76880000       6.23990000      -0.34360000
H       -0.86940000       6.23850000      -2.16060000
