17
Properties=species:S:1:pos:R:3 gdb_37182=T pbc="F F F"
C       -0.06800000       1.52550000       0.17170000
C        1.46300000       1.56560000      -0.20300000
C        1.28810000       0.13810000      -0.71280000
O        0.49430000       0.15690000      -1.94640000
C       -0.33690000      -0.79930000      -1.25470000
C        0.67040000      -2.00480000      -1.11380000
O        1.77890000      -1.93170000      -2.01690000
C        1.90190000      -1.27890000      -0.75510000
C       -0.04100000      -0.04280000       0.06610000
H       -0.31060000       1.89710000       1.16850000
H       -0.70370000       2.01660000      -0.56360000
H        1.79540000       2.30490000      -0.93460000
H        2.09830000       1.61520000       0.68610000
H       -1.31490000      -0.97830000      -1.70440000
H        0.38420000      -2.98830000      -0.75700000
H        2.66920000      -1.62720000      -0.07310000
H       -0.07570000      -0.58680000       1.01300000
