20
Properties=species:S:1:pos:R:3 gdb_59973=T pbc="F F F"
C       -0.01970000       1.61030000       0.03120000
C        0.00550000       0.08890000       0.13370000
O        0.57020000      -0.23560000       1.38950000
C       -1.40030000      -0.51920000      -0.02440000
C       -1.37860000      -2.05510000      -0.14930000
O       -0.68660000      -2.66080000       0.92310000
C       -2.80080000      -2.63920000      -0.16110000
N       -3.57050000      -2.36240000      -1.23820000
O       -3.18440000      -3.30810000       0.78590000
H        0.98290000       2.00760000       0.21050000
H       -0.35260000       1.93690000      -0.95910000
H       -0.69080000       2.03250000       0.78630000
H        0.63760000      -0.30500000      -0.68520000
H        0.38850000      -1.17490000       1.53810000
H       -2.00430000      -0.23380000       0.84560000
H       -1.88130000      -0.09610000      -0.91550000
H       -0.87180000      -2.32930000      -1.08740000
H       -1.38100000      -3.12110000       1.43110000
H       -3.22690000      -1.83230000      -2.01950000
H       -4.51150000      -2.71940000      -1.26820000
