17
Properties=species:S:1:pos:R:3 gdb_97696=T pbc="F F F"
C        0.24500000       1.22250000       0.60740000
C       -0.20670000       0.36310000      -0.58780000
C       -1.51580000      -0.24810000      -0.39080000
C       -2.59660000      -0.74490000      -0.20160000
C       -3.89860000      -1.32690000       0.01500000
C       -4.23570000      -2.63370000      -0.61140000
O       -3.92390000      -2.56560000       0.76790000
C       -4.96730000      -0.40230000       0.31780000
C       -5.85210000       0.37330000       0.55950000
H        1.22900000       1.65780000       0.41050000
H       -0.46260000       2.03530000       0.79050000
H        0.30910000       0.61920000       1.51670000
H       -0.23110000       0.97780000      -1.49680000
H        0.53280000      -0.42530000      -0.77710000
H       -5.27660000      -2.83980000      -0.85520000
H       -3.48850000      -3.10700000      -1.24620000
H       -6.63280000       1.05890000       0.77990000
