22
Properties=species:S:1:pos:R:3 gdb_60640=T pbc="F F F"
C        0.42650000       1.77400000      -0.04780000
C        0.12750000       0.26950000       0.01670000
C        0.61520000      -0.45640000      -1.24140000
C        0.21810000      -1.94290000      -1.47220000
C        0.05850000      -1.62200000      -2.98220000
C       -0.03390000      -0.11640000      -2.61350000
C        0.83050000      -0.34050000       1.23390000
N        0.03930000      -1.08130000       2.06380000
O        2.02000000      -0.18510000       1.44000000
H        1.50730000       1.93560000      -0.04090000
H        0.00750000       2.21340000      -0.95780000
H        0.00130000       2.30190000       0.81150000
H       -0.95790000       0.11880000       0.10180000
H        1.70350000      -0.34940000      -1.29850000
H        0.93470000      -2.71420000      -1.18120000
H       -0.74780000      -2.17390000      -1.00830000
H        0.97180000      -1.84520000      -3.54060000
H       -0.78740000      -2.06780000      -3.51050000
H       -1.07480000       0.20400000      -2.49300000
H        0.47730000       0.60280000      -3.25770000
H       -0.93180000      -1.25000000       1.87240000
H        0.47060000      -1.54730000       2.84570000
