19
Properties=species:S:1:pos:R:3 gdb_74953=T pbc="F F F"
C       -0.03830000       1.53400000       0.05080000
C       -0.00220000       0.03460000      -0.01680000
C       -0.00990000      -0.65690000      -1.15900000
C        0.01670000      -2.17270000      -1.12590000
O        1.35080000      -2.65310000      -0.98180000
C        1.62750000      -2.53270000       0.41570000
C        0.24200000      -2.21940000       1.05240000
C        0.02800000      -0.72000000       1.29940000
O       -0.65440000      -2.64540000       0.02370000
H        0.84720000       1.93070000       0.56380000
H       -0.08500000       1.98180000      -0.94530000
H       -0.90910000       1.88000000       0.62280000
H       -0.00280000      -0.16380000      -2.12640000
H       -0.42230000      -2.63520000      -2.01200000
H        2.04140000      -3.48250000       0.76820000
H        2.35550000      -1.73460000       0.60510000
H        0.04150000      -2.81270000       1.94650000
H        0.82760000      -0.32830000       1.94290000
H       -0.91150000      -0.55640000       1.84570000
