18
Properties=species:S:1:pos:R:3 gdb_10119=T pbc="F F F"
C       -0.08210000       1.58730000       0.15570000
C       -0.00340000       0.06380000       0.02020000
C        0.74410000      -0.40710000      -1.24690000
C        0.92780000      -1.94270000      -1.23410000
C        1.86180000      -2.44330000      -2.31680000
O        2.76180000      -3.21930000      -2.12670000
C       -0.04800000       0.00610000      -2.47490000
O        0.33130000       0.75110000      -3.33960000
H        0.91810000       2.03030000       0.20310000
H       -0.60340000       2.04550000      -0.69080000
H       -0.61650000       1.86740000       1.06810000
H        0.50440000      -0.36100000       0.89340000
H       -1.01410000      -0.36690000       0.01760000
H        1.72030000       0.08760000      -1.30280000
H        1.30850000      -2.28360000      -0.26730000
H       -0.05040000      -2.42410000      -1.39010000
H        1.65930000      -2.04090000      -3.33570000
H       -1.06910000      -0.44850000      -2.51430000
