17
Properties=species:S:1:pos:R:3 gdb_81735=T pbc="F F F"
C       -0.27240000       1.52680000       0.05950000
C        0.06080000       0.04850000       0.01630000
C        1.15510000      -0.47410000      -0.97610000
O        1.93300000       0.45610000      -1.68670000
C        1.87840000      -1.02910000       0.24810000
C        2.13530000       0.05660000       1.22760000
N        0.79300000      -0.53010000       1.21070000
C        2.46800000      -2.32960000       0.33080000
N        2.94900000      -3.38140000       0.36240000
H        0.61740000       2.15940000       0.03210000
H       -0.89310000       1.79560000      -0.80180000
H       -0.84000000       1.75770000       0.96630000
H       -0.85510000      -0.53850000      -0.09090000
H        0.77720000      -1.26920000      -1.62690000
H        1.51100000       0.63150000      -2.53350000
H        2.69880000      -0.21560000       2.11370000
H        2.31300000       1.05960000       0.85430000
