11
Properties=species:S:1:pos:R:3 gdb_2559=T pbc="F F F"
C        0.03390000      -1.17220000      -0.01890000
C        0.00430000       0.02770000       0.01800000
C       -0.04680000       1.47010000       0.06500000
C        0.54430000       2.18220000       1.23020000
O        1.23100000       2.14430000      -0.00740000
C       -1.12330000       2.09080000      -0.67070000
C       -2.02650000       2.59860000      -1.27770000
H        0.06350000      -2.23340000      -0.05730000
H        0.12410000       3.14570000       1.51290000
H        0.97580000       1.58720000       2.03310000
H       -2.82140000       3.04760000      -1.82080000
