17
Properties=species:S:1:pos:R:3 gdb_49824=T pbc="F F F"
O        0.41210000      -0.23220000      -0.09570000
C        0.21080000       0.94530000       0.05460000
C        1.25340000       2.02380000      -0.07010000
C        0.77640000       3.29980000      -0.85200000
C        0.99820000       4.12660000       0.43130000
O        0.89210000       5.28640000       0.71140000
C        1.41320000       2.90530000       1.19600000
C        1.05520000       2.60840000       2.64250000
C        2.47790000       2.85830000       2.27030000
H       -0.80400000       1.32670000       0.32110000
H        2.18500000       1.58880000      -0.43580000
H        1.39720000       3.58700000      -1.70360000
H       -0.26990000       3.27650000      -1.17500000
H        0.51160000       3.38520000       3.16930000
H        0.75580000       1.59290000       2.87880000
H        3.16080000       2.01600000       2.24400000
H        2.92450000       3.80980000       2.53850000
