21
Properties=species:S:1:pos:R:3 gdb_83969=T pbc="F F F"
C       -0.84290000       1.31950000       0.11940000
C       -0.07210000       0.00880000       0.02700000
C        0.60180000      -0.48470000      -1.30550000
C        0.97710000       0.57880000      -2.35690000
C        2.30660000       1.19850000      -1.87620000
C        3.05570000       0.02680000      -1.21130000
C        1.93900000      -0.77960000      -0.52980000
C        1.30970000      -0.07930000       0.69030000
O        1.76070000       0.34270000       1.71780000
H       -0.25920000       2.16170000      -0.26410000
H       -1.77880000       1.27150000      -0.44640000
H       -1.08750000       1.53800000       1.16310000
H       -0.68800000      -0.80680000       0.43050000
H        0.09450000      -1.34030000      -1.75260000
H        1.13500000       0.07960000      -3.31980000
H        0.19210000       1.32490000      -2.51260000
H        2.87350000       1.66020000      -2.68910000
H        2.11720000       1.98320000      -1.13370000
H        3.54970000      -0.59190000      -1.96930000
H        3.81830000       0.35320000      -0.49860000
H        2.19440000      -1.82620000      -0.34560000
