14
Properties=species:S:1:pos:R:3 gdb_130187=T pbc="F F F"
N       -0.01740000       1.39630000       0.16010000
C        0.05100000       0.00910000       0.04530000
N       -1.04670000      -0.74690000       0.01680000
N       -0.62460000      -2.05400000      -0.01170000
C        0.72720000      -2.13370000      -0.01710000
C        1.18270000      -0.83190000       0.02140000
O        2.54680000      -0.78850000       0.02230000
C        2.93430000      -2.10150000      -0.01490000
C        1.88530000      -2.97550000      -0.03900000
H        0.66250000       1.87600000      -0.41530000
H       -0.95100000       1.73250000      -0.04040000
H       -1.31630000      -2.77990000      -0.01670000
H        4.00050000      -2.26260000      -0.02020000
H        1.95800000      -4.05060000      -0.06840000
