19
Properties=species:S:1:pos:R:3 gdb_62387=T pbc="F F F"
C       -0.17490000       1.60220000      -0.02240000
C       -0.00190000       0.08160000       0.00500000
C       -1.26950000      -0.57290000      -0.28880000
C       -2.34790000      -1.04250000      -0.53800000
C        1.19420000      -0.62230000      -0.72960000
C        2.45200000       0.12010000      -0.23790000
C        2.10470000       0.10830000       1.28680000
C        0.76060000      -0.63720000       1.17430000
O        1.09490000      -1.70560000       0.24060000
H        0.75310000       2.13410000       0.19310000
H       -0.53270000       1.92180000      -1.00570000
H       -0.92420000       1.90830000       0.71380000
H       -3.28990000      -1.48120000      -0.75590000
H        1.12560000      -0.94270000      -1.76860000
H        3.34910000      -0.45780000      -0.46780000
H        2.56740000       1.12070000      -0.66130000
H        2.81570000      -0.47570000       1.87410000
H        2.02190000       1.10220000       1.73300000
H        0.25010000      -0.97290000       2.07630000
