18
Properties=species:S:1:pos:R:3 gdb_99242=T pbc="F F F"
C       -0.11280000       1.32820000       0.00350000
O        0.06640000      -0.09230000      -0.06490000
C        0.61570000      -0.54890000      -1.20840000
O        0.94680000       0.14520000      -2.13010000
C        0.73490000      -2.05900000      -1.11840000
O        1.31210000      -2.52800000      -2.32240000
C        1.49340000      -3.86400000      -2.41550000
C        2.11230000      -4.20520000      -3.74540000
N        1.15790000      -4.63600000      -1.46520000
H        0.84730000       1.84240000      -0.08730000
H       -0.77230000       1.67230000      -0.79720000
H       -0.56040000       1.52410000       0.97770000
H        1.34620000      -2.33510000      -0.25230000
H       -0.25280000      -2.50310000      -0.95350000
H        2.26680000      -5.28110000      -3.83970000
H        1.46750000      -3.86020000      -4.55900000
H        3.07190000      -3.69140000      -3.85550000
H        1.36270000      -5.60430000      -1.70010000
