12
Properties=species:S:1:pos:R:3 gdb_21329=T pbc="F F F"
N       -0.28880000      -0.68520000      -1.23730000
C       -0.15290000       0.17720000      -0.48090000
C        0.06400000       1.29070000       0.44250000
C        1.41200000       1.93080000       0.25840000
C        2.10740000       2.85890000       0.99830000
N        3.28810000       3.12300000       0.37330000
N        3.36650000       2.40940000      -0.71230000
N        2.23330000       1.68760000      -0.79070000
H       -0.73710000       2.02480000       0.29020000
H       -0.04240000       0.92430000       1.46960000
H        1.83330000       3.34060000       1.92310000
H        2.09650000       1.04430000      -1.55700000
