21
Properties=species:S:1:pos:R:3 gdb_63937=T pbc="F F F"
C        0.24570000       1.43840000      -0.07400000
C        0.01540000      -0.05810000       0.04210000
C       -1.43060000      -0.44630000      -0.24530000
O        0.89830000      -0.81430000      -0.86110000
C        1.44540000      -1.59340000       0.20990000
C        2.69880000      -0.96010000       0.81970000
O        1.89070000      -0.13550000       1.69820000
C        0.66410000      -0.78120000       1.26900000
C       -0.15240000      -1.25990000       2.43910000
H        1.26650000       1.69570000       0.21090000
H        0.06890000       1.75960000      -1.10540000
H       -0.44430000       1.98710000       0.57600000
H       -1.69760000      -0.12750000      -1.25770000
H       -1.57110000      -1.52930000      -0.18880000
H       -2.11850000       0.03400000       0.45840000
H        1.40460000      -2.67020000       0.03220000
H        3.33550000      -1.64380000       1.39630000
H        3.30820000      -0.37300000       0.12490000
H       -0.46540000      -0.40450000       3.04850000
H       -1.04730000      -1.79890000       2.11910000
H        0.44490000      -1.91950000       3.07500000
