16
Properties=species:S:1:pos:R:3 gdb_32279=T pbc="F F F"
O       -0.00780000       1.45130000       0.04710000
C        0.01470000       0.03720000      -0.00980000
C       -1.39820000      -0.48590000      -0.00200000
C       -2.51470000       0.34370000       0.05240000
N       -3.78420000      -0.08360000       0.06130000
C       -3.97470000      -1.40180000       0.01380000
C       -2.94290000      -2.33330000      -0.04300000
C       -1.63280000      -1.86460000      -0.05090000
O       -0.54760000      -2.68220000      -0.10440000
H        0.90080000       1.76360000       0.04020000
H        0.52790000      -0.32240000      -0.91670000
H        0.56360000      -0.39270000       0.84390000
H       -2.36300000       1.41660000       0.09140000
H       -5.00760000      -1.74260000       0.02110000
H       -3.15550000      -3.39800000      -0.08020000
H       -0.83990000      -3.59960000      -0.13480000
