19
Properties=species:S:1:pos:R:3 gdb_102991=T pbc="F F F"
C       -0.42560000       1.42180000       0.09720000
C        0.18400000       0.02800000      -0.08370000
C        0.82210000      -0.49810000       1.20030000
C        1.98570000       0.20780000       1.66130000
C        2.95730000       0.79570000       2.06150000
C       -0.08970000      -1.08680000       2.30050000
O       -1.45720000      -1.17860000       2.07620000
C        0.80650000      -1.99510000       1.50650000
O        0.15700000      -2.80820000       0.56150000
H        0.32690000       2.13830000       0.44020000
H       -0.83800000       1.78940000      -0.84740000
H       -1.23220000       1.39300000       0.83530000
H       -0.58220000      -0.67420000      -0.41820000
H        0.95010000       0.04560000      -0.86690000
H        3.81260000       1.32060000       2.40770000
H        0.15050000      -0.84740000       3.33090000
H       -1.57390000      -1.85240000       1.39110000
H        1.69990000      -2.42300000       1.95370000
H        0.04760000      -3.68170000       0.95360000
