21
Properties=species:S:1:pos:R:3 gdb_74331=T pbc="F F F"
C        0.06330000       1.57220000       0.23560000
C        0.06400000       0.08680000       0.05810000
C       -0.08640000      -0.59200000      -1.08140000
C       -0.09510000      -2.09200000      -0.88320000
C        0.40300000      -2.24310000       0.58440000
C        0.21890000      -0.85140000       1.23840000
C       -1.48100000      -2.67040000      -1.09760000
C       -1.90370000      -3.24800000      -2.37870000
O       -1.56910000      -4.08780000      -1.27150000
H        1.00480000       1.91810000       0.68090000
H       -0.07730000       2.09550000      -0.71410000
H       -0.73520000       1.88730000       0.91980000
H       -0.24320000      -0.13610000      -2.05400000
H        0.57570000      -2.60930000      -1.58030000
H       -0.12170000      -3.04130000       1.11580000
H        1.46370000      -2.50890000       0.57650000
H        1.06560000      -0.57610000       1.87910000
H       -0.67070000      -0.80490000       1.88290000
H       -2.25700000      -2.25620000      -0.44990000
H       -2.95570000      -3.24120000      -2.66150000
H       -1.20160000      -3.27420000      -3.21190000
