19
Properties=species:S:1:pos:R:3 gdb_104948=T pbc="F F F"
C        0.18530000       1.44750000       0.33790000
C       -0.15560000       0.02280000      -0.10770000
C        0.66540000      -0.45200000      -1.30490000
C        2.05360000      -1.03980000      -1.04420000
C        0.93960000      -1.94850000      -1.45360000
C        0.49930000       0.28770000      -2.51860000
C        0.35420000       0.91170000      -3.54660000
C        0.16680000       1.66600000      -4.75250000
O        0.73260000       1.44660000      -5.80140000
H        1.23610000       1.52840000       0.63490000
H        0.01150000       2.16270000      -0.47180000
H       -0.43110000       1.74640000       1.19080000
H        0.01340000      -0.67700000       0.71920000
H       -1.22070000      -0.04430000      -0.35930000
H        2.83360000      -0.82350000      -1.76360000
H        2.37750000      -1.05100000      -0.00900000
H        0.49100000      -2.59160000      -0.70420000
H        0.95060000      -2.35630000      -2.45690000
H       -0.56120000       2.49800000      -4.65480000
