16
Properties=species:S:1:pos:R:3 gdb_77139=T pbc="F F F"
C       -0.59330000       0.97210000       0.85730000
C        0.10910000      -0.29280000       0.38190000
C        0.36490000      -0.48690000      -1.13240000
O        1.81290000      -0.52110000      -0.89200000
C        1.63750000      -0.31610000       0.46530000
O        2.48300000      -0.20020000       1.28910000
C       -0.20160000      -1.75260000      -1.75760000
N        0.70510000      -2.73400000      -1.98240000
O       -1.39210000      -1.82920000      -1.99080000
H       -0.16620000       1.86450000       0.38970000
H       -1.65790000       0.93000000       0.61240000
H       -0.49190000       1.07560000       1.94110000
H       -0.32750000      -1.18050000       0.84860000
H        0.10040000       0.37330000      -1.75110000
H        1.68510000      -2.57350000      -1.82020000
H        0.39860000      -3.58710000      -2.42020000
