16
Properties=species:S:1:pos:R:3 gdb_30951=T pbc="F F F"
C       -0.28010000       1.56380000      -0.12210000
C        0.09040000       0.07590000       0.00790000
C        0.86020000      -0.44380000      -1.14720000
C        2.09360000      -0.91540000      -1.30850000
O        3.12480000      -1.03650000      -0.46490000
O        2.30410000      -1.25600000      -2.63640000
C        1.12780000      -0.96640000      -3.29970000
N        0.86900000      -1.13320000      -4.51740000
O        0.24600000      -0.45110000      -2.40780000
H        0.61780000       2.18620000      -0.17750000
H       -0.86990000       1.73870000      -1.02580000
H       -0.87080000       1.88730000       0.73970000
H        0.69440000      -0.09080000       0.90540000
H       -0.82550000      -0.51800000       0.12520000
H        3.56060000      -1.88610000      -0.61230000
H        1.67000000      -1.52420000      -5.00560000
