16
Properties=species:S:1:pos:R:3 gdb_88928=T pbc="F F F"
O       -0.17850000       1.46650000       0.07580000
C       -0.01200000       0.07720000       0.01390000
C       -0.47440000      -0.77400000       1.17280000
C       -1.28620000      -0.70330000      -0.10990000
N       -2.49250000       0.05640000      -0.14440000
C       -3.71050000      -0.52800000      -0.31680000
O       -3.88200000      -1.73100000      -0.40620000
C       -4.80620000       0.43220000      -0.39110000
C       -5.73400000       1.19450000      -0.45260000
H        0.40270000       1.81360000       0.76010000
H        0.84890000      -0.25270000      -0.56510000
H        0.06170000      -1.68920000       1.39790000
H       -0.88450000      -0.24990000       2.02930000
H       -1.31530000      -1.58020000      -0.74510000
H       -2.40800000       1.06180000      -0.12360000
H       -6.56190000       1.85810000      -0.51030000
