14
Properties=species:S:1:pos:R:3 gdb_113138=T pbc="F F F"
O        0.03190000       1.36910000      -0.34210000
C        0.04620000       0.09320000       0.26460000
C       -1.34430000      -0.50700000       0.24450000
N       -1.77380000      -1.06700000      -1.02890000
C       -1.57290000      -1.99880000       0.10920000
C       -0.45890000      -2.91670000      -0.01480000
N        0.43700000      -3.64120000      -0.09480000
C       -2.74150000      -2.54350000       0.76440000
N       -3.69570000      -2.95400000       1.27130000
H       -0.13290000       1.23870000      -1.28280000
H        0.75440000      -0.59050000      -0.22110000
H        0.36940000       0.23970000       1.29950000
H       -2.08610000       0.01220000       0.84740000
H       -2.77060000      -0.93970000      -1.19010000
