25
Properties=species:S:1:pos:R:3 gdb_118055=T pbc="F F F"
C       -0.16040000       1.59870000       0.14410000
C        0.03340000       0.08670000      -0.00380000
C        0.75160000      -0.54600000       1.19680000
O        0.07400000      -0.21880000       2.41170000
C        0.96100000      -2.07460000       1.07750000
C        1.68610000      -2.46390000      -0.22150000
C        1.70300000      -2.60450000       2.31940000
C        1.56040000      -4.10520000       2.54320000
O        2.27810000      -4.43380000       3.72460000
H        0.80560000       2.11290000       0.19850000
H       -0.71040000       2.01070000      -0.70740000
H       -0.70900000       1.83370000       1.05920000
H       -0.94300000      -0.40640000      -0.12860000
H        0.59820000      -0.12100000      -0.91830000
H        1.73730000      -0.07190000       1.30600000
H       -0.81000000      -0.60040000       2.36040000
H       -0.04460000      -2.52820000       1.05790000
H        1.92490000      -3.53110000      -0.23540000
H        1.08620000      -2.25580000      -1.11100000
H        2.63150000      -1.91620000      -0.31650000
H        2.77120000      -2.36290000       2.24310000
H        1.32520000      -2.09250000       3.20810000
H        0.49200000      -4.36230000       2.64330000
H        1.94840000      -4.67070000       1.68130000
H        2.21420000      -5.38360000       3.86010000
