22
Properties=species:S:1:pos:R:3 gdb_12284=T pbc="F F F"
C       -0.24990000       1.51700000       0.26070000
C       -0.04960000       0.01850000       0.00960000
C        0.80810000      -0.62240000       1.08740000
O        0.18870000      -0.55860000       2.39510000
C        0.48650000      -1.94920000       2.66020000
C       -0.70520000      -2.69900000       3.22210000
C        0.95690000      -2.16710000       1.19270000
C        0.10290000      -3.04230000       0.28190000
H        0.70600000       2.05230000       0.24640000
H       -0.89590000       1.96390000      -0.50080000
H       -0.70980000       1.67980000       1.23940000
H       -1.02330000      -0.48160000      -0.02750000
H        0.43230000      -0.14230000      -0.96390000
H        1.78760000      -0.11800000       1.11130000
H        1.32670000      -2.02580000       3.36720000
H       -1.56700000      -2.64940000       2.55180000
H       -0.45400000      -3.75090000       3.39630000
H       -0.99770000      -2.25830000       4.18060000
H        1.99750000      -2.49690000       1.12800000
H       -0.95380000      -2.76310000       0.29770000
H        0.44720000      -2.97330000      -0.75530000
H        0.17220000      -4.09340000       0.58150000
