15
Properties=species:S:1:pos:R:3 gdb_77204=T pbc="F F F"
N        0.24280000       1.37280000      -0.02930000
C        0.04170000      -0.04540000      -0.05840000
C        0.07750000      -0.69260000       1.36860000
N       -1.39880000      -0.80990000       1.33110000
C       -1.43460000      -0.63290000      -0.13520000
C       -2.46920000       0.27070000      -0.62550000
N       -3.24870000       1.02040000      -1.03360000
C        0.80030000      -1.96410000       1.42790000
N        1.33680000      -2.98760000       1.47040000
H        0.18530000       1.77050000      -0.96080000
H       -0.45720000       1.83800000       0.54150000
H        0.71920000      -0.49650000      -0.78260000
H        0.44730000      -0.02580000       2.15350000
H       -1.79640000      -1.67090000       1.68950000
H       -1.46430000      -1.56570000      -0.71270000
