18
Properties=species:S:1:pos:R:3 gdb_24151=T pbc="F F F"
C        0.02680000       1.41290000       0.46420000
C       -0.05510000      -0.06510000       0.14240000
C       -1.28180000      -0.68740000      -0.36910000
O       -0.18280000      -0.41130000      -1.24030000
C        1.38830000       1.99210000       0.20320000
C        2.19980000       2.62830000       1.11640000
N        3.35370000       3.00240000       0.47420000
C        3.29700000       2.61370000      -0.84040000
C        2.09220000       1.98470000      -1.04010000
H       -0.73690000       1.92910000      -0.13160000
H       -0.24140000       1.55730000       1.51840000
H        0.64970000      -0.69640000       0.68620000
H       -1.47810000      -1.74250000      -0.18270000
H       -2.16830000      -0.07340000      -0.52630000
H        2.04680000       2.84650000       2.16180000
H        4.12060000       3.49020000       0.90140000
H        4.11400000       2.81530000      -1.51460000
H        1.74060000       1.55220000      -1.96390000
