21
Properties=species:S:1:pos:R:3 gdb_59373=T pbc="F F F"
C       -1.33180000      -0.48220000      -0.48880000
C        0.05550000      -0.02300000      -0.01740000
C        0.29130000       1.44750000      -0.39050000
C        0.20840000      -0.24080000       1.49440000
C        0.33320000      -1.72120000       1.95170000
C        1.84870000      -1.42940000       2.15600000
N        1.55670000       0.01600000       2.07330000
C        2.46370000      -1.86750000       3.41120000
N        2.94630000      -2.23280000       4.39580000
H       -2.12050000       0.10400000      -0.00290000
H       -1.44020000      -0.35020000      -1.56970000
H       -1.51430000      -1.53730000      -0.26280000
H        0.81490000      -0.63560000      -0.52690000
H       -0.44740000       2.09500000       0.09610000
H        1.28530000       1.79920000      -0.09500000
H        0.20250000       1.59390000      -1.47150000
H       -0.57040000       0.33440000       2.01170000
H       -0.18490000      -1.93950000       2.88510000
H        0.09940000      -2.48990000       1.21490000
H        2.45480000      -1.82580000       1.33030000
H        2.19920000       0.55460000       1.50270000
