21
Properties=species:S:1:pos:R:3 gdb_99703=T pbc="F F F"
C        0.14500000       1.38950000       0.04070000
C        0.06250000      -0.06410000       0.01090000
C        0.00710000      -1.26730000      -0.00470000
C       -0.11000000      -2.72450000      -0.05130000
C       -1.60370000      -3.13260000      -0.08010000
O       -1.79260000      -4.53030000       0.01450000
C        0.65080000      -3.30590000      -1.23940000
C        2.13090000      -3.55220000      -1.15080000
C        1.18260000      -4.72420000      -1.19410000
H        0.74210000       1.77210000      -0.79460000
H       -0.84840000       1.84680000      -0.02670000
H        0.60910000       1.74340000       0.96800000
H        0.31780000      -3.15140000       0.86720000
H       -2.11460000      -2.69280000       0.78080000
H       -2.06900000      -2.71640000      -0.98750000
H       -1.35510000      -4.93130000      -0.74330000
H        0.28330000      -2.95700000      -2.20140000
H        2.73900000      -3.34890000      -2.02480000
H        2.62160000      -3.33340000      -0.20820000
H        1.03830000      -5.29030000      -0.28010000
H        1.14420000      -5.32100000      -2.09930000
