22
Properties=species:S:1:pos:R:3 gdb_122849=T pbc="F F F"
C       -0.11260000       1.29620000       0.19180000
O        0.03290000      -0.10490000      -0.03850000
C        0.67210000      -0.46180000      -1.17210000
N        1.11330000       0.41450000      -1.97770000
C        0.73790000      -1.97270000      -1.25840000
C        1.44010000      -2.52120000      -2.50060000
C        1.47230000      -4.05220000      -2.52650000
C        2.17010000      -4.60870000      -3.76060000
O        2.13950000      -6.02490000      -3.67690000
H        0.86420000       1.78440000       0.25230000
H       -0.68110000       1.76660000      -0.61530000
H       -0.64560000       1.38650000       1.13940000
H        1.56600000      -0.02180000      -2.77680000
H        1.23200000      -2.33580000      -0.34850000
H       -0.28940000      -2.35340000      -1.20070000
H        0.93190000      -2.15080000      -3.40080000
H        2.46650000      -2.13310000      -2.54110000
H        1.98480000      -4.43480000      -1.63550000
H        0.45170000      -4.45250000      -2.49440000
H        1.65870000      -4.25080000      -4.66960000
H        3.20600000      -4.23300000      -3.80270000
H        2.57910000      -6.38260000      -4.45360000
