12
Properties=species:S:1:pos:R:3 gdb_1832=T pbc="F F F"
N       -0.11020000       1.33040000      -0.04240000
C       -0.00580000       0.06650000       0.02840000
N       -1.07330000      -0.80300000       0.14010000
C       -0.67470000      -2.18530000      -0.02910000
C        0.85630000      -2.10200000      -0.00370000
O        1.64800000      -3.00960000      -0.01190000
N        1.13860000      -0.75160000       0.02180000
H        0.79800000       1.78230000      -0.10690000
H       -1.97560000      -0.46280000      -0.14730000
H       -1.02660000      -2.83730000       0.77750000
H       -0.99220000      -2.62550000      -0.98420000
H        2.07940000      -0.39270000       0.03700000
