21
Properties=species:S:1:pos:R:3 gdb_60089=T pbc="F F F"
C        1.74870000      -0.13400000      -0.19060000
C        0.48040000      -0.98750000      -0.22970000
C        0.56940000      -2.10890000      -1.25760000
O        0.21020000      -1.63420000       1.02460000
C       -0.16720000      -0.82300000       2.08920000
C       -1.44910000      -0.01010000       2.03170000
C       -1.41220000      -1.25840000       2.85260000
C        0.94220000      -0.30910000       2.94510000
O        0.79770000       0.47720000       3.85080000
H        2.61740000      -0.74570000       0.07310000
H        1.92800000       0.31290000      -1.17370000
H        1.66720000       0.68500000       0.53020000
H       -0.37190000      -0.33760000      -0.47720000
H        1.40650000      -2.77420000      -1.02370000
H       -0.34880000      -2.70180000      -1.25710000
H        0.72220000      -1.69980000      -2.26040000
H       -1.42850000       0.94280000       2.54820000
H       -1.99840000      -0.03360000       1.09810000
H       -1.89920000      -2.14270000       2.45900000
H       -1.37830000      -1.16720000       3.93190000
H        1.93300000      -0.74750000       2.69630000
