19
Properties=species:S:1:pos:R:3 gdb_71284=T pbc="F F F"
C        0.05970000       1.42610000      -0.15750000
C       -0.03050000      -0.06900000       0.05610000
O        0.31170000      -0.78160000      -1.20270000
C       -0.98930000      -1.35760000      -1.23740000
C       -1.27860000      -2.16680000       0.00200000
C       -0.19940000      -2.83900000       0.85000000
C        0.71020000      -1.86600000       1.55520000
C        0.79940000      -0.58570000       1.20110000
C       -1.45330000      -0.66370000       0.00900000
H        1.09450000       1.71650000      -0.36560000
H       -0.56310000       1.73390000      -1.00130000
H       -0.27390000       1.96080000       0.73910000
H       -1.44660000      -1.52070000      -2.20660000
H       -2.21870000      -2.70980000      -0.06100000
H       -0.67460000      -3.48730000       1.59750000
H        0.40420000      -3.50890000       0.22150000
H        1.30710000      -2.25660000       2.37530000
H        1.46720000       0.10070000       1.71370000
H       -2.36260000      -0.13660000       0.26660000
