23
Properties=species:S:1:pos:R:3 gdb_104213=T pbc="F F F"
C       -0.03280000       1.51870000       0.14820000
C       -0.18560000       0.02870000      -0.17930000
C        0.68760000      -0.46700000      -1.33920000
C        0.37410000       0.22480000      -2.66460000
C        2.20260000      -0.56670000      -1.00850000
O        2.18920000      -2.00620000      -1.12140000
C        0.79660000      -2.00090000      -1.43270000
C       -0.10680000      -3.08120000      -0.93650000
C        0.22520000      -2.96330000      -2.42010000
H        1.01010000       1.77520000       0.36630000
H       -0.36620000       2.15600000      -0.67610000
H       -0.62650000       1.78310000       1.02850000
H        0.05540000      -0.56400000       0.71110000
H       -1.23760000      -0.18550000      -0.41120000
H        0.59150000       1.29660000      -2.61810000
H        0.96920000      -0.20220000      -3.47720000
H       -0.68380000       0.11240000      -2.92900000
H        2.87810000      -0.10780000      -1.74070000
H        2.48940000      -0.24210000      -0.00070000
H        0.35790000      -3.89030000      -0.38290000
H       -1.10880000      -2.82360000      -0.60860000
H       -0.55160000      -2.62310000      -3.09780000
H        0.90590000      -3.69590000      -2.84060000
