19
Properties=species:S:1:pos:R:3 gdb_95128=T pbc="F F F"
O        0.12480000       1.49550000       0.15950000
C        0.05160000       0.08140000       0.03960000
C        0.69820000      -0.68170000       1.22210000
C       -0.11220000      -1.98570000       1.37200000
C       -1.51170000      -1.63250000       0.88560000
C       -2.13670000      -0.36620000       1.35570000
C       -1.39820000      -0.36040000       0.02620000
C       -2.19530000      -0.24890000      -1.21440000
O       -3.36580000      -0.53850000      -1.30800000
H        1.05080000       1.75340000       0.10790000
H        0.51480000      -0.23650000      -0.91010000
H        1.76580000      -0.86390000       1.06970000
H        0.60240000      -0.05560000       2.11470000
H        0.30200000      -2.77450000       0.73420000
H       -0.10350000      -2.36640000       2.39910000
H       -2.17130000      -2.42060000       0.53980000
H       -3.21410000      -0.29100000       1.26500000
H       -1.69610000       0.19080000       2.17460000
H       -1.62530000       0.11620000      -2.09880000
