16
Properties=species:S:1:pos:R:3 gdb_72372=T pbc="F F F"
O        0.04240000       1.39190000      -0.07020000
C        0.03450000      -0.01120000      -0.07780000
C        0.77200000      -0.64260000      -1.27950000
C       -0.18780000      -1.68460000      -1.80050000
C       -1.34380000      -1.72050000      -1.13520000
C       -1.36480000      -0.72460000      -0.01020000
N       -0.94670000      -1.23240000       1.31870000
C        0.28880000      -0.64810000       1.31630000
O        1.19310000      -0.59640000       2.11090000
H        0.66870000       1.67300000       0.60710000
H        0.96870000       0.14100000      -2.02150000
H        1.74410000      -1.06620000      -1.00040000
H        0.06260000      -2.32440000      -2.64030000
H       -2.17410000      -2.38220000      -1.35450000
H       -2.24180000      -0.07470000       0.03910000
H       -1.36440000      -1.90120000       1.94980000
