16
Properties=species:S:1:pos:R:3 gdb_20871=T pbc="F F F"
C       -0.03410000       1.56930000      -0.01910000
C        0.13270000       0.04980000      -0.07970000
C        0.64770000      -0.54040000       1.24640000
C        0.77480000      -2.02760000       1.21800000
C        1.85520000      -2.85090000       1.25260000
O        1.45200000      -4.11840000       1.18690000
N        0.02510000      -4.07310000       1.10600000
N       -0.32190000      -2.86650000       1.12590000
H        0.91710000       2.06660000       0.20180000
H       -0.40250000       1.96390000      -0.97050000
H       -0.74750000       1.85870000       0.76040000
H       -0.82390000      -0.42430000      -0.32630000
H        0.82720000      -0.22040000      -0.88440000
H        1.62260000      -0.10520000       1.49410000
H       -0.03620000      -0.25630000       2.05580000
H        2.91620000      -2.67530000       1.32340000
