23
Properties=species:S:1:pos:R:3 gdb_73689=T pbc="F F F"
O       -0.10110000       1.32850000       0.01410000
C        0.06510000      -0.09560000       0.00020000
C        0.69510000      -0.56540000      -1.32990000
C       -0.51300000      -0.78820000      -2.25540000
C       -1.53620000      -1.46060000      -1.32150000
C       -1.38120000      -0.69860000       0.01050000
C       -1.50590000      -1.48710000       1.33010000
C       -0.46390000      -0.83090000       2.25460000
C        0.72390000      -0.58820000       1.30800000
H        0.77740000       1.72390000       0.00720000
H        1.42030000       0.15670000      -1.71990000
H        1.22500000      -1.51410000      -1.18160000
H       -0.89760000       0.18060000      -2.59440000
H       -0.27770000      -1.38190000      -3.14360000
H       -2.55740000      -1.43530000      -1.71260000
H       -1.27070000      -2.51730000      -1.18440000
H       -2.06500000       0.15520000       0.02700000
H       -2.51850000      -1.47180000       1.74370000
H       -1.24150000      -2.54030000       1.16650000
H       -0.84250000       0.13050000       2.62040000
H       -0.20870000      -1.44110000       3.12610000
H        1.25260000      -1.53270000       1.13120000
H        1.45550000       0.12850000       1.69580000
