16
Properties=species:S:1:pos:R:3 gdb_35668=T pbc="F F F"
C        0.21190000      -1.19520000       0.09000000
C        0.05770000      -0.00410000       0.05230000
C       -0.14460000       1.44520000       0.01680000
C       -0.77490000       1.99410000       1.31350000
C        0.46580000       2.27640000       2.16840000
C        1.46030000       2.78420000       1.10510000
O        1.12480000       2.12250000      -0.11070000
C        1.36510000       4.24800000       0.91970000
N        1.28560000       5.39320000       0.78830000
H        0.35030000      -2.24820000       0.11220000
H       -0.73820000       1.70810000      -0.86490000
H       -1.31120000       2.92210000       1.09530000
H       -1.46690000       1.28680000       1.77090000
H        0.29690000       2.99910000       2.96750000
H        0.85320000       1.35140000       2.60340000
H        2.49810000       2.54330000       1.35820000
