22
Properties=species:S:1:pos:R:3 gdb_118500=T pbc="F F F"
C        0.00010000       1.26990000      -0.28880000
C        0.06540000      -0.19190000       0.11830000
O       -1.19090000      -0.79320000      -0.16910000
C       -1.28430000      -2.18600000       0.12940000
C       -1.69800000      -2.36810000       1.59720000
O       -2.87510000      -1.65010000       1.90050000
C       -2.27600000      -2.81480000      -0.83270000
C       -3.42990000      -2.05950000      -1.36750000
N       -2.29660000      -2.41660000      -2.24590000
H        0.95740000       1.76060000      -0.09040000
H       -0.22360000       1.36340000      -1.35530000
H       -0.77900000       1.79420000       0.27210000
H        0.85950000      -0.71570000      -0.43600000
H        0.30170000      -0.28150000       1.18900000
H       -0.30040000      -2.65980000      -0.02240000
H       -1.89780000      -3.42660000       1.79760000
H       -0.86360000      -2.06590000       2.25170000
H       -2.76340000      -0.78160000       1.49510000
H       -2.38670000      -3.88630000      -0.67630000
H       -4.36090000      -2.57590000      -1.58120000
H       -3.53590000      -1.02120000      -1.07250000
H       -1.71000000      -1.58930000      -2.34160000
