15
Properties=species:S:1:pos:R:3 gdb_5483=T pbc="F F F"
C       -0.02870000       1.50640000       0.04820000
C       -0.01050000       0.01520000      -0.03880000
C       -0.02830000      -0.79920000      -1.13400000
C        0.00220000      -2.16440000      -0.68610000
C        0.03770000      -2.15130000       0.67310000
N        0.03050000      -0.82020000       1.08790000
C        0.05970000      -0.41990000       2.41730000
O        0.09440000      -1.18050000       3.35060000
H        0.86250000       1.91250000       0.54150000
H       -0.05970000       1.91880000      -0.96280000
H       -0.90470000       1.88840000       0.58590000
H       -0.05990000      -0.46000000      -2.15880000
H       -0.00210000      -3.04500000      -1.31000000
H        0.06780000      -2.93220000       1.41320000
H        0.04740000       0.67730000       2.52520000
