18
Properties=species:S:1:pos:R:3 gdb_75325=T pbc="F F F"
C        0.07060000       1.49200000       0.06940000
C       -0.00930000      -0.00310000       0.00900000
C       -0.02630000      -0.72980000      -1.11600000
C       -0.00770000      -2.24350000      -1.06280000
C       -0.02090000      -2.69530000       0.41600000
N       -1.02670000      -1.93360000       1.22550000
C       -0.06640000      -0.79180000       1.32110000
C        1.03190000      -1.86660000       1.18080000
O        2.16160000      -2.01210000       1.53000000
H        0.97320000       1.81320000       0.60460000
H        0.09440000       1.93440000      -0.93010000
H       -0.78230000       1.91370000       0.61600000
H       -0.03610000      -0.24930000      -2.09080000
H       -0.85810000      -2.67510000      -1.61010000
H        0.89560000      -2.63240000      -1.55220000
H       -0.03700000      -3.78110000       0.53730000
H       -1.85340000      -1.68700000       0.68290000
H       -0.13740000      -0.17120000       2.21630000
