16
Properties=species:S:1:pos:R:3 gdb_92741=T pbc="F F F"
N        0.10680000       1.19860000       0.89550000
C       -0.06350000       0.02460000       0.17890000
N       -1.20260000      -0.52920000       0.06400000
C       -1.26610000      -1.77500000      -0.68890000
C       -0.00540000      -2.63170000      -0.53020000
O       -0.02600000      -3.75420000      -1.36790000
C        1.22730000      -1.78490000      -0.81600000
O        2.21010000      -2.22470000      -1.37770000
N        1.13540000      -0.49610000      -0.34870000
H        0.81060000       1.83690000       0.55270000
H       -0.77790000       1.65360000       1.07370000
H       -2.13710000      -2.34880000      -0.36130000
H       -1.41410000      -1.56290000      -1.75870000
H        0.07490000      -2.92840000       0.53270000
H        0.87870000      -3.84580000      -1.70390000
H        1.97780000       0.06080000      -0.38490000
