19
Properties=species:S:1:pos:R:3 gdb_83258=T pbc="F F F"
C       -0.35200000       1.46600000       0.03650000
C       -0.03710000      -0.01030000       0.14470000
C        1.29070000      -0.60620000      -0.28500000
O        2.36280000       0.28370000      -0.45280000
C        2.80860000       0.75720000       0.82380000
C        1.88740000       0.17660000       1.93230000
O        1.36410000       1.14380000       2.82430000
C        0.87430000      -0.66500000       1.16110000
O        0.35060000      -1.80520000       1.76970000
H        0.54650000       2.08710000       0.07790000
H       -0.83100000       1.67760000      -0.92510000
H       -1.04600000       1.79180000       0.82030000
H       -0.87810000      -0.66520000      -0.07100000
H        1.32940000      -1.47180000      -0.93840000
H        3.85230000       0.45170000       0.96510000
H        2.77260000       1.85270000       0.84640000
H        2.45970000      -0.49930000       2.57810000
H        0.70910000       1.66590000       2.35050000
H        1.07840000      -2.40660000       1.96600000
