18
Properties=species:S:1:pos:R:3 gdb_77291=T pbc="F F F"
C       -0.46120000       1.32320000      -0.07580000
C        0.13200000      -0.06560000       0.10140000
C        0.90140000      -0.76520000      -1.05290000
C        2.00730000      -1.23160000      -0.05930000
C        1.40380000      -0.24020000       0.94920000
O        1.80880000       0.28870000       1.94290000
O        0.14430000      -1.78010000      -1.68560000
C        0.53310000      -2.17060000      -2.91780000
N       -0.02910000      -3.15320000      -3.47260000
H        0.28280000       2.02400000      -0.46800000
H       -1.31110000       1.30370000      -0.76450000
H       -0.80800000       1.71240000       0.88560000
H       -0.62280000      -0.77440000       0.46790000
H        1.27970000      -0.05010000      -1.79290000
H        1.84490000      -2.26970000       0.24900000
H        3.05560000      -1.09310000      -0.33180000
H        1.33570000      -1.54950000      -3.34000000
H        0.36060000      -3.29890000      -4.40140000
