18
Properties=species:S:1:pos:R:3 gdb_13697=T pbc="F F F"
C       -0.30590000       1.47600000       0.20360000
C        0.00330000       0.00130000       0.09980000
C        1.36930000      -0.47960000      -0.28700000
C        0.87730000      -0.70030000       1.14010000
C        1.46340000       0.02790000       2.22550000
C        1.96190000       0.63900000       3.13940000
C        2.51160000       1.37190000       4.27720000
O        1.59840000       2.29510000       4.85960000
H        0.54150000       2.02870000       0.61780000
H       -0.53760000       1.89350000      -0.78220000
H       -1.16750000       1.65480000       0.85560000
H       -0.82380000      -0.60980000      -0.25210000
H        1.46500000      -1.35400000      -0.92110000
H        2.14660000       0.26460000      -0.42020000
H        0.58540000      -1.71860000       1.38160000
H        2.88160000       0.65250000       5.02590000
H        3.37550000       1.96970000       3.96460000
H        0.77140000       1.82330000       5.00280000
