19
Properties=species:S:1:pos:R:3 gdb_89771=T pbc="F F F"
C       -0.03060000       1.51340000       0.08270000
N       -0.00510000       0.06810000       0.14410000
C       -1.25320000      -0.66410000       0.45770000
C       -0.43260000      -1.60860000       1.33660000
C       -0.84150000      -2.47660000       2.48030000
C       -0.29290000      -3.09150000       1.21030000
C        0.70240000      -0.56760000       1.27360000
C        2.06050000      -1.03380000       0.98900000
N        3.12780000      -1.42880000       0.78710000
H        0.98320000       1.89360000      -0.07700000
H       -0.64500000       1.83060000      -0.76550000
H       -0.43800000       1.98220000       0.99820000
H       -1.97700000      -0.06490000       1.03470000
H       -1.75720000      -1.09010000      -0.41650000
H       -0.21270000      -2.48800000       3.36500000
H       -1.90230000      -2.57720000       2.68650000
H       -0.98120000      -3.60760000       0.54900000
H        0.70780000      -3.51050000       1.23450000
H        0.73260000       0.05980000       2.18090000
