17
Properties=species:S:1:pos:R:3 gdb_22510=T pbc="F F F"
C       -0.22860000       1.57990000       0.21140000
C        0.01430000       0.07550000       0.08400000
N        1.20930000      -0.27010000      -0.77670000
C        1.80820000      -1.12650000       0.29070000
C        0.76200000      -0.59720000       1.23940000
N        0.53050000      -0.57830000       2.47900000
O        1.50750000      -1.29520000       3.18880000
C       -1.19790000      -0.64450000      -0.29940000
C       -2.18100000      -1.23960000      -0.65430000
H        0.70690000       2.08000000       0.47120000
H       -0.59320000       1.98250000      -0.73770000
H       -0.97210000       1.77890000       0.98770000
H        0.94750000      -0.78460000      -1.61060000
H        1.73150000      -2.20970000       0.12870000
H        2.84810000      -0.88200000       0.52980000
H        1.21540000      -1.19040000       4.10090000
H       -3.05340000      -1.76620000      -0.95400000
