16
Properties=species:S:1:pos:R:3 gdb_105665=T pbc="F F F"
O       -0.01760000       1.29660000      -0.43540000
C       -0.01510000      -0.05360000      -0.03850000
C       -1.45350000      -0.54750000       0.15320000
O       -2.19780000      -0.34550000      -1.07710000
C       -2.26660000      -1.77110000      -1.33440000
C       -1.67920000      -2.10110000       0.04490000
O       -0.55140000      -2.92440000      -0.00620000
C       -2.11340000       0.10060000       1.28900000
N       -2.63360000       0.55040000       2.21780000
H       -0.59850000       1.35390000      -1.20480000
H        0.47330000      -0.70870000      -0.77210000
H        0.54180000      -0.11940000       0.90090000
H       -3.29110000      -2.09830000      -1.53040000
H       -1.61040000      -2.07560000      -2.15700000
H       -2.42160000      -2.45710000       0.76540000
H       -0.34600000      -3.23510000       0.88120000
