16
Properties=species:S:1:pos:R:3 gdb_30446=T pbc="F F F"
C       -0.09040000       1.45720000       0.01670000
N       -0.00950000       0.00900000      -0.01500000
C       -1.07550000      -0.67150000       0.00730000
O       -2.32970000      -0.03730000       0.05660000
C       -3.46310000      -0.77190000       0.08190000
N       -4.57440000       0.02290000       0.20490000
C       -3.42210000      -2.12970000       0.04320000
N       -2.22520000      -2.80610000      -0.00240000
C       -1.12970000      -2.12400000      -0.01760000
H        0.91950000       1.87300000       0.00230000
H       -0.64020000       1.85790000      -0.84680000
H       -0.60260000       1.82220000       0.91790000
H       -4.46570000       0.96390000      -0.14450000
H       -5.45120000      -0.40970000      -0.04100000
H       -4.33210000      -2.71590000       0.05600000
H       -0.17340000      -2.63650000      -0.05410000
