18
Properties=species:S:1:pos:R:3 gdb_44793=T pbc="F F F"
N       -0.61910000       1.06740000       0.86760000
C       -0.34870000      -0.08910000       0.46400000
O        0.87770000      -0.66920000       0.15110000
C        0.18810000      -1.85050000      -0.34540000
C       -0.53140000      -2.49660000       0.78260000
C       -1.15870000      -1.28690000       0.06790000
C       -2.51000000      -1.28860000      -0.54670000
C       -3.58380000      -0.35510000      -0.03190000
C       -2.98730000      -0.13490000      -1.39770000
H        0.22750000       1.62580000       0.98960000
H        0.55140000      -2.28680000      -1.26540000
H       -1.03060000      -3.43460000       0.55580000
H       -0.13570000      -2.41310000       1.79020000
H       -2.84530000      -2.27620000      -0.85080000
H       -4.59530000      -0.73860000       0.04180000
H       -3.29720000       0.34450000       0.74440000
H       -2.32390000       0.71420000      -1.51380000
H       -3.58400000      -0.36790000      -2.27260000
