13
Properties=species:S:1:pos:R:3 gdb_5148=T pbc="F F F"
C       -0.48490000      -0.75170000      -1.01010000
C       -0.12870000       0.08020000      -0.22000000
C        0.31030000       1.09220000       0.73430000
C        1.55670000       1.81420000       0.31190000
C        2.31980000       1.67240000      -0.79730000
O        3.35380000       2.56640000      -0.71790000
C        3.15040000       3.20540000       0.45370000
N        2.11010000       2.81220000       1.11130000
H       -0.80940000      -1.48970000      -1.70120000
H       -0.49020000       1.82670000       0.89380000
H        0.48130000       0.63030000       1.71570000
H        2.28180000       1.04360000      -1.66830000
H        3.86380000       3.96880000       0.72200000
