17
Properties=species:S:1:pos:R:3 gdb_17456=T pbc="F F F"
C       -0.16910000       1.48080000      -0.14720000
N        0.09110000       0.05600000       0.01140000
C        1.40680000      -0.52700000      -0.16160000
C        2.52440000       0.32210000       0.42990000
O        3.07870000      -0.38960000       1.55030000
C        1.85540000       0.34530000       1.74940000
C        1.82570000       1.36260000       2.84480000
C        0.71640000      -0.51300000       1.19070000
H        0.62670000       2.14280000       0.21810000
H       -0.32490000       1.68730000      -1.21080000
H       -1.09510000       1.72730000       0.38200000
H        1.52740000      -1.36010000      -0.84440000
H        3.15720000       1.06700000      -0.03820000
H        2.75610000       1.93610000       2.85770000
H        0.98490000       2.05160000       2.71900000
H        1.71530000       0.87550000       3.82000000
H        0.22250000      -1.33350000       1.69950000
