19
Properties=species:S:1:pos:R:3 gdb_39574=T pbc="F F F"
C       -0.01420000       1.54480000      -0.01340000
C        1.37120000       2.13660000      -0.04560000
C        2.46160000       1.38170000      -0.13330000
C        2.32930000      -0.12690000      -0.18370000
O        1.08150000      -0.49850000      -0.76370000
C       -0.01340000      -0.00350000       0.00320000
C       -0.01650000      -0.65820000       1.40660000
C        1.36780000      -0.93850000       1.93200000
C        2.45940000      -0.70820000       1.20960000
H       -0.56980000       1.93010000       0.85080000
H       -0.56670000       1.89470000      -0.89660000
H        1.44580000       3.22060000      -0.01650000
H        3.45970000       1.80890000      -0.13860000
H        3.09110000      -0.55300000      -0.84570000
H       -0.90300000      -0.34760000      -0.53200000
H       -0.56880000      -0.02770000       2.11460000
H       -0.57330000      -1.60450000       1.36080000
H        1.44030000      -1.36290000       2.93010000
H        3.45670000      -0.89420000       1.59630000
