20
Properties=species:S:1:pos:R:3 gdb_90472=T pbc="F F F"
C       -0.19450000       1.32950000      -0.04910000
C       -0.03280000      -0.19080000      -0.02260000
C        0.80270000      -0.75040000      -1.20340000
C        1.46430000      -2.01150000      -0.67540000
C        1.37230000      -2.00190000       0.83570000
C        0.66810000      -0.72150000       1.25660000
N        0.63530000      -2.95550000       0.03300000
C       -0.71080000      -3.20470000      -0.07850000
O       -1.32310000      -3.26520000      -1.11990000
H        0.77880000       1.83070000       0.00630000
H       -0.68750000       1.65690000      -0.97020000
H       -0.79970000       1.68040000       0.79340000
H       -1.03200000      -0.63400000      -0.07900000
H        0.18700000      -0.93830000      -2.08690000
H        1.59250000      -0.04400000      -1.48910000
H        2.32030000      -2.43040000      -1.19670000
H        2.15630000      -2.41530000       1.46450000
H        1.43370000      -0.01300000       1.59920000
H       -0.02990000      -0.86090000       2.08850000
H       -1.16920000      -3.42340000       0.90660000
