17
Properties=species:S:1:pos:R:3 gdb_64970=T pbc="F F F"
C       -0.10330000       1.50310000      -0.74780000
C       -0.06770000       0.19880000       0.01890000
C        0.86060000      -0.88650000      -0.44180000
N        1.12300000      -0.17700000       0.80900000
C       -1.38470000      -0.20190000       0.63500000
O       -2.42930000       0.24190000       0.22920000
C       -1.31700000      -1.17690000       1.82420000
C       -2.63130000      -1.62180000       2.26860000
N       -3.65950000      -1.99470000       2.63810000
H        0.85730000       1.68860000      -1.23750000
H       -0.88730000       1.47710000      -1.50760000
H       -0.32140000       2.34240000      -0.07990000
H        0.59270000      -1.93420000      -0.33810000
H        1.46210000      -0.66160000      -1.31850000
H        1.85230000       0.52000000       0.68210000
H       -0.69400000      -2.04310000       1.57990000
H       -0.78820000      -0.67280000       2.64090000
