16
Properties=species:S:1:pos:R:3 gdb_36751=T pbc="F F F"
C        1.19180000      -0.39800000       0.76840000
C        0.53730000       0.55400000       0.43960000
C       -0.24910000       1.71800000       0.04230000
O        0.46700000       2.61950000      -0.80570000
C        1.41220000       3.36910000      -0.19340000
N        2.11520000       4.15330000      -0.88040000
C        3.11810000       4.98280000      -0.22480000
C        3.25610000       4.87360000       1.23110000
C        3.35240000       4.77010000       2.42550000
H        1.76950000      -1.24170000       1.05630000
H       -1.11920000       1.40930000      -0.54340000
H       -0.62010000       2.24590000       0.93150000
H        1.48340000       3.23140000       0.89160000
H        4.08650000       4.76190000      -0.69290000
H        2.90400000       6.02780000      -0.48540000
H        3.45490000       4.69210000       3.47970000
