17
Properties=species:S:1:pos:R:3 gdb_89557=T pbc="F F F"
O        0.54640000       0.63300000      -0.96220000
C       -0.09700000      -0.23950000      -0.07630000
C        0.28080000      -0.23160000       1.43400000
C       -1.20830000      -0.46070000       1.74530000
C       -1.57740000       0.01860000       0.33090000
C       -1.72740000      -1.79120000       2.31810000
C       -2.27330000      -0.90640000       3.43810000
O       -2.88840000      -1.03050000       4.44630000
O       -1.78900000       0.25390000       2.88560000
H        0.46450000       1.52960000      -0.61940000
H        0.02450000      -1.23700000      -0.50720000
H        1.00980000      -0.95650000       1.80230000
H        0.57850000       0.77250000       1.75440000
H       -1.79430000       1.09190000       0.34560000
H       -2.37360000      -0.50100000      -0.20640000
H       -2.49580000      -2.30300000       1.73570000
H       -0.97060000      -2.50840000       2.64120000
