21
Properties=species:S:1:pos:R:3 gdb_95264=T pbc="F F F"
O       -0.02840000       1.45250000       0.01510000
C        0.02360000       0.02650000       0.01980000
C        0.97930000      -0.49960000       1.10340000
C        0.72740000      -1.97110000       1.47060000
C       -0.75490000      -2.21520000       1.76870000
C       -1.48080000      -1.11420000       2.61910000
C       -2.25080000      -0.68220000       1.37070000
C       -1.69820000      -1.87890000       0.58960000
C       -1.39800000      -0.48370000       0.13540000
H        0.86610000       1.77820000      -0.13030000
H        0.38950000      -0.32910000      -0.96000000
H        2.01530000      -0.36320000       0.76830000
H        0.85580000       0.13200000       1.98860000
H        1.03950000      -2.62830000       0.64750000
H        1.34480000      -2.24010000       2.33610000
H       -0.91100000      -3.21970000       2.16740000
H       -2.15260000      -1.57360000       3.34910000
H       -0.87420000      -0.36700000       3.13800000
H       -3.26570000      -0.30120000       1.37830000
H       -2.21710000      -2.60480000      -0.02510000
H       -2.00750000      -0.16140000      -0.70630000
