15
Properties=species:S:1:pos:R:3 gdb_129362=T pbc="F F F"
N       -0.47070000       1.06310000      -0.20390000
C       -0.56510000      -0.18620000      -0.35120000
O       -0.69350000      -0.97760000       0.73710000
C       -0.88240000      -2.37260000       0.49590000
C       -2.31020000      -2.70810000       0.20060000
N       -3.07300000      -3.37710000       1.05170000
N       -4.25220000      -3.43350000       0.39210000
C       -4.15470000      -2.80820000      -0.79840000
N       -2.93460000      -2.33910000      -0.95830000
H       -0.35730000       1.50800000      -1.11250000
H       -0.54890000      -0.73980000      -1.29780000
H       -0.24160000      -2.70320000      -0.33090000
H       -0.57260000      -2.88220000       1.40890000
H       -5.04140000      -3.89660000       0.81260000
H       -4.97520000      -2.72690000      -1.49530000
