20
Properties=species:S:1:pos:R:3 gdb_47480=T pbc="F F F"
N       -0.10010000       1.31470000      -0.18290000
C       -0.02040000       0.07270000       0.04790000
C       -1.25520000      -0.80300000       0.06780000
C       -1.15350000      -1.95000000       1.05700000
C       -1.72130000      -1.77420000       2.44590000
C       -2.39960000      -2.69050000       1.45110000
C        0.15970000      -2.68550000       0.88540000
C        1.30700000      -1.69320000       1.04000000
O        1.19000000      -0.55490000       0.17130000
H        0.83770000       1.72290000      -0.19750000
H       -2.11960000      -0.16380000       0.25510000
H       -1.37200000      -1.21570000      -0.94520000
H       -1.19710000      -2.22920000       3.28020000
H       -2.20570000      -0.83410000       2.68740000
H       -3.34300000      -2.36870000       1.02210000
H       -2.32840000      -3.76110000       1.61420000
H        0.27450000      -3.48320000       1.62760000
H        0.20470000      -3.15100000      -0.10790000
H        1.35490000      -1.33570000       2.07780000
H        2.27050000      -2.14380000       0.78980000
