16
Properties=species:S:1:pos:R:3 gdb_61129=T pbc="F F F"
C       -0.01710000       1.58850000      -0.03050000
C       -0.02450000       0.04750000       0.00410000
C        0.75040000      -0.50970000       1.23620000
C        2.15810000      -0.11940000       1.22950000
N        3.26930000       0.19690000       1.20450000
C       -1.38170000      -0.48440000       0.00740000
C       -2.50890000      -0.92490000       0.02310000
C       -3.77820000      -1.41520000       0.03950000
C       -4.90380000      -1.85170000       0.05440000
H        1.01080000       1.95990000      -0.05550000
H       -0.54190000       1.95140000      -0.91690000
H       -0.51680000       1.99680000       0.85290000
H        0.48750000      -0.32010000      -0.89490000
H        0.28260000      -0.14710000       2.15780000
H        0.68620000      -1.60190000       1.25160000
H       -5.89450000      -2.23360000       0.06700000
