25
Properties=species:S:1:pos:R:3 gdb_123053=T pbc="F F F"
C       -0.08260000       1.38670000       0.03600000
O       -0.10910000      -0.01630000      -0.04460000
C        0.68110000      -0.52120000      -1.09980000
C        0.59130000      -2.04080000      -1.09750000
C        1.41900000      -2.68760000      -2.21390000
C        1.33040000      -4.20790000      -2.22390000
C       -0.00850000      -4.89320000      -2.62900000
C        0.81540000      -5.97010000      -3.38490000
C        2.02540000      -4.99770000      -3.36920000
H        0.93640000       1.76890000       0.21040000
H       -0.46920000       1.85850000      -0.88210000
H       -0.71700000       1.68060000       0.87610000
H        0.33220000      -0.11630000      -2.06680000
H        1.73070000      -0.19790000      -0.98030000
H        0.92630000      -2.40820000      -0.11980000
H       -0.46260000      -2.32770000      -1.19410000
H        1.08560000      -2.30440000      -3.18910000
H        2.47170000      -2.38760000      -2.11230000
H        1.66180000      -4.60020000      -1.25420000
H       -0.67910000      -5.22550000      -1.83270000
H       -0.57880000      -4.26420000      -3.32160000
H        0.99640000      -6.85160000      -2.76290000
H        0.44430000      -6.30470000      -4.35650000
H        2.07370000      -4.40080000      -4.28650000
H        3.01780000      -5.41310000      -3.17520000
