16
Properties=species:S:1:pos:R:3 gdb_34205=T pbc="F F F"
N        0.12930000      -1.15290000       0.09080000
C        0.06100000      -0.00020000       0.04000000
C       -0.07380000       1.44170000      -0.03510000
C       -1.12480000       2.16390000       0.85100000
C       -1.31370000       3.22180000      -0.26930000
C       -0.11600000       4.20700000      -0.37610000
C        0.72590000       3.08500000      -1.02360000
O        1.19270000       2.13310000      -0.03150000
C       -0.56710000       2.26060000      -1.27260000
H       -2.01960000       1.54500000       0.96250000
H       -0.77460000       2.49130000       1.83240000
H       -2.31720000       3.61170000      -0.42830000
H       -0.32700000       4.99530000      -1.10590000
H        0.27530000       4.65400000       0.54120000
H        1.50400000       3.32380000      -1.74910000
H       -0.93130000       1.85230000      -2.21020000
