18
Properties=species:S:1:pos:R:3 gdb_34405=T pbc="F F F"
N       -0.05040000      -1.12080000      -0.30120000
C       -0.03600000       0.02540000      -0.14460000
C       -0.02240000       1.46080000       0.04860000
C       -0.39720000       2.32690000      -1.20070000
C        0.97900000       3.03980000      -1.13560000
C        1.38280000       2.19340000       0.10190000
C        1.33420000       2.92020000       1.44650000
O       -0.05030000       3.11970000       1.71690000
C       -0.69220000       1.90680000       1.36960000
H       -0.56610000       1.73920000      -2.10370000
H       -1.26340000       2.96900000      -1.02840000
H        1.61020000       2.87450000      -2.01040000
H        0.92740000       4.11370000      -0.94150000
H        2.26450000       1.56400000      -0.01710000
H        1.79730000       2.30670000       2.23570000
H        1.81690000       3.90100000       1.43290000
H       -1.76220000       2.10090000       1.26390000
H       -0.54070000       1.13960000       2.14440000
