17
Properties=species:S:1:pos:R:3 gdb_1353=T pbc="F F F"
C       -0.00830000       1.52270000       0.08330000
C       -0.03180000      -0.00400000      -0.02510000
C       -1.45430000      -0.55790000      -0.03020000
C        0.82180000      -0.50890000      -1.21210000
O        2.11030000      -0.68450000      -0.64530000
C        1.84790000      -1.18370000       0.64150000
O        0.68200000      -0.54140000       1.11140000
H        1.02080000       1.88760000       0.02270000
H       -0.59290000       1.98440000      -0.71950000
H       -0.42890000       1.83800000       1.04220000
H       -2.00320000      -0.21220000      -0.91300000
H       -1.44300000      -1.65160000      -0.03530000
H       -1.99770000      -0.22560000       0.85890000
H        0.43020000      -1.46220000      -1.60090000
H        0.89940000       0.20820000      -2.03170000
H        1.69080000      -2.27820000       0.61110000
H        2.69670000      -0.94790000       1.29180000
