12
Properties=species:S:1:pos:R:3 gdb_131048=T pbc="F F F"
O       -0.37020000       0.08060000       0.00740000
C       -0.11000000       1.24970000       0.00940000
N        1.17140000       1.79250000      -0.00140000
C        2.36220000       1.09130000      -0.01680000
N        2.49900000      -0.19600000      -0.02970000
O        3.91350000      -0.39520000      -0.04180000
C        4.57590000       0.79540000      -0.03590000
O        5.76150000       0.95040000      -0.04280000
N        3.56370000       1.75330000      -0.02000000
H       -0.86390000       2.05980000       0.02040000
H        1.23620000       2.79880000       0.00140000
H        3.74290000       2.74240000      -0.00970000
