12
Properties=species:S:1:pos:R:3 gdb_3775=T pbc="F F F"
C       -0.04120000       1.42270000       0.04630000
N       -0.05080000      -0.03300000       0.00940000
C        0.52880000      -0.60270000      -0.95030000
N        0.63400000      -1.97330000      -1.16490000
C        1.35020000      -2.15750000      -2.30750000
N        1.71730000      -1.05590000      -2.86500000
O        1.19620000      -0.03500000      -2.01180000
H        0.96690000       1.84230000      -0.07080000
H       -0.66810000       1.85440000      -0.74570000
H       -0.44120000       1.75360000       1.00770000
H        0.25000000      -2.66610000      -0.54780000
H        1.59140000      -3.12750000      -2.71550000
