21
Properties=species:S:1:pos:R:3 gdb_39540=T pbc="F F F"
C       -0.01110000       1.59300000      -0.00390000
C        1.46940000       1.91070000      -0.01360000
C        2.20900000       0.84990000       0.34250000
C        1.35530000      -0.30420000       0.61350000
C        1.62530000      -1.42330000       1.29280000
C        0.56330000      -2.43170000       1.65090000
C       -0.80290000      -2.14610000       0.99410000
C       -1.11710000      -0.64170000       0.91430000
C       -0.03080000       0.04470000       0.08730000
H       -0.49340000       2.05370000       0.87140000
H       -0.54100000       1.97360000      -0.88400000
H        1.85640000       2.89990000      -0.23060000
H        3.28570000       0.84300000       0.47000000
H        2.62880000      -1.60160000       1.67410000
H        0.89390000      -3.44590000       1.38900000
H        0.45400000      -2.44410000       2.74670000
H       -0.80440000      -2.55270000      -0.02550000
H       -1.59130000      -2.67610000       1.53900000
H       -2.10880000      -0.48370000       0.47460000
H       -1.14070000      -0.20850000       1.92320000
H       -0.09690000      -0.33550000      -0.94330000
