23
Properties=species:S:1:pos:R:3 gdb_114359=T pbc="F F F"
C       -0.27920000       1.47640000       0.10350000
C       -0.03470000      -0.03250000      -0.01230000
C        0.73940000      -0.59710000       1.17270000
C        0.07780000      -0.64430000       2.58660000
C        0.67310000      -2.06490000       2.81640000
C       -0.31710000      -3.22240000       2.61860000
O       -1.57920000      -3.02010000       3.21530000
C       -0.17710000      -3.07690000       1.07130000
C        1.03320000      -2.11550000       1.28500000
H        0.66620000       2.02870000       0.15260000
H       -0.84290000       1.85720000      -0.75390000
H       -0.84820000       1.71610000       1.00830000
H       -0.99980000      -0.54590000      -0.10630000
H        0.51650000      -0.24580000      -0.93840000
H        1.69600000      -0.06420000       1.25000000
H        0.40500000       0.12230000       3.29180000
H       -1.01520000      -0.64900000       2.56950000
H        1.40980000      -2.15280000       3.61570000
H        0.12900000      -4.16880000       2.95880000
H       -2.14170000      -3.76930000       2.99530000
H        0.04140000      -3.99970000       0.52860000
H       -1.05020000      -2.60430000       0.61400000
H        1.98990000      -2.47940000       0.90740000
