16
Properties=species:S:1:pos:R:3 gdb_16111=T pbc="F F F"
C       -0.03980000      -1.17430000       0.37470000
C        0.02070000       0.00270000       0.13750000
C        0.05150000       1.39960000      -0.18780000
C       -0.82240000       1.95280000      -1.30690000
C       -0.29750000       3.39260000      -1.51750000
C        1.19240000       3.35770000      -1.09750000
C        1.24840000       2.25930000      -0.05640000
O        0.19830000       2.32670000       0.91250000
H       -0.08450000      -2.21200000       0.59580000
H       -0.67680000       1.33230000      -2.19860000
H       -1.88550000       1.92050000      -1.05280000
H       -0.43320000       3.73660000      -2.54530000
H       -0.84250000       4.07780000      -0.86550000
H        1.84410000       3.08110000      -1.93540000
H        1.54340000       4.31980000      -0.71180000
H        2.19550000       1.87080000       0.30960000
