19
Properties=species:S:1:pos:R:3 gdb_36406=T pbc="F F F"
C       -0.01960000      -1.16870000      -0.16490000
C       -0.01580000       0.02560000      -0.02640000
C        0.02150000       1.47350000       0.13980000
C        1.44210000       2.05770000       0.05470000
C        2.12330000       1.89460000      -1.34580000
C        2.27530000       3.39450000      -1.66960000
C        2.86240000       3.99200000      -0.37170000
C        1.43850000       3.60620000       0.07760000
O        0.96920000       3.92850000      -1.27020000
H       -0.03830000      -2.22310000      -0.28660000
H       -0.59250000       1.95440000      -0.63120000
H       -0.42560000       1.73900000       1.10720000
H        2.05540000       1.64520000       0.86100000
H        3.07930000       1.36680000      -1.30560000
H        1.47750000       1.38620000      -2.06490000
H        2.59060000       3.69490000      -2.66850000
H        3.72280000       3.50850000       0.09890000
H        2.99110000       5.07260000      -0.43730000
H        0.89460000       4.11770000       0.87300000
