12
Properties=species:S:1:pos:R:3 gdb_131115=T pbc="F F F"
O       -0.21450000       1.33520000       0.08780000
C        0.02860000      -0.04850000      -0.02740000
C        0.80340000      -0.36240000      -1.25230000
N        1.40500000      -0.59800000      -2.20970000
C        0.70930000      -0.60880000       1.18910000
C        0.40050000      -1.62200000       2.03760000
O        1.32330000      -1.67960000       2.99120000
N        2.25480000      -0.62840000       2.71390000
N        1.86860000      -0.04250000       1.67400000
H        0.62880000       1.76950000       0.27040000
H       -0.95340000      -0.52160000      -0.13210000
H       -0.40090000      -2.34150000       2.07700000
