18
Properties=species:S:1:pos:R:3 gdb_81049=T pbc="F F F"
C       -0.31640000       1.49770000      -0.15190000
C        0.02910000       0.02640000      -0.04290000
C        1.30930000      -0.60010000      -0.67650000
C        2.15940000       0.06890000       0.42760000
C        0.89450000      -0.48440000       1.15760000
N        1.11780000      -1.77740000       0.28230000
H        0.28750000      -2.36210000       0.19960000
H        1.92360000      -2.32440000       0.58060000
C        0.54150000      -0.70560000       2.64740000
O        0.23790000       0.34490000       3.22180000
O        0.62060000      -1.90540000       2.96590000
H        0.55670000       2.15300000      -0.15240000
H       -0.88520000       1.69330000      -1.06570000
H       -0.93110000       1.77180000       0.70980000
H       -0.86870000      -0.58320000      -0.20410000
H        1.55370000      -0.81040000      -1.71850000
H        3.11300000      -0.40520000       0.67320000
H        2.25310000       1.14870000       0.39040000
