18
Properties=species:S:1:pos:R:3 gdb_88129=T pbc="F F F"
C       -0.12770000       1.50920000      -0.09030000
C       -0.02520000       0.01320000       0.05820000
N        1.28420000      -0.60010000      -0.15630000
C        0.71730000      -0.62920000       1.19350000
C        1.36030000       0.05480000       2.38250000
O        0.68830000      -0.49570000       3.52170000
C        0.34290000      -1.84120000       3.24340000
C        0.19360000      -1.92720000       1.72790000
O       -0.21110000      -2.85510000       1.07010000
H        0.79590000       1.99970000       0.22670000
H       -0.30170000       1.77170000      -1.13900000
H       -0.96030000       1.90590000       0.49980000
H       -0.88710000      -0.55550000      -0.28880000
H        1.16660000      -1.52890000      -0.56450000
H        2.43940000      -0.16130000       2.41440000
H        1.22110000       1.13740000       2.41280000
H        1.12610000      -2.54840000       3.56610000
H       -0.58360000      -2.09710000       3.76550000
