19
Properties=species:S:1:pos:R:3 gdb_46988=T pbc="F F F"
O        0.05390000      -0.06140000      -0.07840000
C       -0.01630000       1.13760000       0.04250000
C       -1.33860000       1.88520000       0.21120000
C       -1.21380000       3.14860000       1.09220000
C        0.13970000       3.83680000       0.87720000
C        0.40640000       4.25090000      -0.59080000
C        1.16920000       3.03280000      -1.17790000
C        1.21570000       2.04680000       0.01380000
O        1.17040000       2.88520000       1.17120000
H       -1.65240000       2.17120000      -0.80300000
H       -2.09210000       1.18680000       0.58250000
H       -2.03790000       3.84260000       0.89130000
H       -1.27780000       2.86430000       2.14770000
H        0.26130000       4.66590000       1.57870000
H       -0.52010000       4.46900000      -1.12860000
H        1.02430000       5.15030000      -0.62700000
H        0.68120000       2.60160000      -2.05620000
H        2.18630000       3.30520000      -1.46760000
H        2.11750000       1.43480000       0.05900000
