21
Properties=species:S:1:pos:R:3 gdb_114891=T pbc="F F F"
C        0.17510000       1.32880000      -0.29430000
C        0.01630000      -0.16380000       0.01150000
C       -1.44140000      -0.60480000       0.07290000
C       -2.27980000      -0.62800000      -1.24620000
C       -2.73200000      -2.08380000      -0.92590000
O       -2.29410000      -3.10580000      -1.80030000
C       -0.92870000      -3.29730000      -1.51350000
O       -0.73980000      -3.03710000      -0.13550000
C       -1.74610000      -2.12260000       0.27500000
H        1.23080000       1.61280000      -0.34550000
H       -0.28560000       1.59070000      -1.25320000
H       -0.29880000       1.94510000       0.47790000
H        0.54490000      -0.75610000      -0.74480000
H        0.50140000      -0.40060000       0.96690000
H       -1.96300000      -0.02980000       0.84730000
H       -3.08410000       0.10650000      -1.32330000
H       -1.67620000      -0.57400000      -2.15720000
H       -3.79630000      -2.22860000      -0.73830000
H       -0.66280000      -4.33760000      -1.72360000
H       -0.30250000      -2.62060000      -2.12110000
H       -2.09450000      -2.43000000       1.26340000
