18
Properties=species:S:1:pos:R:3 gdb_101927=T pbc="F F F"
C        0.27310000       1.16530000      -0.73620000
N       -0.05080000       0.16440000       0.28010000
H        0.63090000      -0.58970000       0.29330000
H       -0.56430000       0.58420000       2.02260000
C       -1.38630000      -0.42860000       0.21190000
C       -1.39560000      -1.87220000      -0.28070000
C       -0.57030000      -2.33320000      -1.39960000
O       -0.19300000      -2.61210000      -0.04380000
C       -2.08100000      -0.36270000       1.59810000
O       -1.39040000       0.33090000       2.50160000
O       -3.14700000      -0.87810000       1.80920000
H        1.30520000       1.49660000      -0.59520000
H        0.16470000       0.80560000      -1.77050000
H       -0.37690000       2.03730000      -0.61310000
H       -2.02340000       0.16260000      -0.45760000
H       -2.31390000      -2.40420000      -0.04310000
H       -0.88540000      -3.19790000      -1.98030000
H        0.07820000      -1.63410000      -1.92470000
