18
Properties=species:S:1:pos:R:3 gdb_74576=T pbc="F F F"
C        0.08780000       1.52440000      -0.05640000
C        0.01300000       0.03140000      -0.07360000
C        0.10490000      -0.78410000      -1.12780000
C        0.01520000      -2.22370000      -0.70750000
N       -0.26510000      -2.17890000       0.76960000
C       -1.65870000      -2.66740000       0.58430000
C       -1.36100000      -2.89940000      -0.90530000
O       -1.93710000      -3.40160000      -1.82090000
C       -0.13820000      -0.77760000       1.20120000
H        0.90730000       1.86990000       0.58640000
H        0.24450000       1.93380000      -1.05750000
H       -0.83230000       1.96230000       0.35090000
H        0.24690000      -0.48040000      -2.15770000
H        0.87560000      -2.83240000      -1.01450000
H       -1.90520000      -3.56600000       1.16020000
H       -2.44130000      -1.91420000       0.75670000
H        0.73280000      -0.63850000       1.85910000
H       -1.01720000      -0.47920000       1.79020000
