12
Properties=species:S:1:pos:R:3 gdb_8758=T pbc="F F F"
O       -0.00650000       1.47560000       0.07610000
C        0.02960000       0.09570000       0.11860000
C        0.68880000      -0.47820000      -1.13440000
O        1.14600000       0.25650000      -1.97310000
C        0.77990000      -0.43460000       1.36930000
O        1.44600000       0.27920000       2.07400000
C        0.60640000      -1.85550000       1.61210000
C        0.44770000      -3.03730000       1.77910000
H        0.52190000       1.73610000      -0.69540000
H       -0.98660000      -0.33490000       0.16850000
H        0.72730000      -1.57950000      -1.22210000
H        0.32010000      -4.08000000       1.94590000
