25
Properties=species:S:1:pos:R:3 gdb_59638=T pbc="F F F"
C       -0.04090000       1.54120000      -0.09720000
C        0.05210000       0.01950000       0.09090000
C        0.84740000      -0.32020000       1.35880000
C       -1.35570000      -0.59980000       0.08250000
C       -1.45010000      -2.13090000       0.09800000
C       -2.80930000      -2.37320000       0.77410000
C       -3.01050000      -3.76500000       1.36740000
C       -2.82130000      -1.23530000       1.80580000
O       -2.09050000      -0.15500000       1.23570000
H        0.95430000       1.99560000      -0.13440000
H       -0.56220000       1.79660000      -1.02610000
H       -0.59290000       1.99470000       0.73170000
H        0.57760000      -0.40170000      -0.77860000
H        0.31000000       0.02540000       2.24650000
H        1.02570000      -1.39450000       1.46600000
H        1.82520000       0.17150000       1.33990000
H       -1.87720000      -0.22500000      -0.81440000
H       -1.38280000      -2.56000000      -0.90540000
H       -0.64970000      -2.56880000       0.70540000
H       -3.60090000      -2.17820000       0.03880000
H       -2.22830000      -3.99560000       2.09980000
H       -3.97780000      -3.84680000       1.87490000
H       -2.97930000      -4.53580000       0.59070000
H       -3.83290000      -0.89070000       2.05080000
H       -2.34080000      -1.56070000       2.74290000
