14
Properties=species:S:1:pos:R:3 gdb_1555=T pbc="F F F"
O       -0.07060000       1.44710000      -0.03720000
C        0.03340000       0.03500000       0.01450000
C       -1.38640000      -0.52010000      -0.02430000
C       -1.40660000      -2.05480000       0.03170000
O       -0.78900000      -2.58230000       1.19360000
C       -2.78850000      -2.56100000      -0.10740000
N       -3.87540000      -2.94570000      -0.18410000
H        0.81320000       1.81800000       0.03940000
H        0.60630000      -0.35940000      -0.84150000
H        0.53740000      -0.30580000       0.92940000
H       -1.96000000      -0.11410000       0.81750000
H       -1.88530000      -0.18330000      -0.93920000
H       -0.82260000      -2.45670000      -0.80480000
H       -1.30720000      -2.30940000       1.96010000
