18
Properties=species:S:1:pos:R:3 gdb_46409=T pbc="F F F"
O        0.14920000       0.02660000      -0.07570000
C        0.02340000       1.21540000       0.01080000
C       -1.15600000       2.15130000       0.30770000
C       -0.10880000       3.25880000       0.63940000
C        1.03390000       2.38030000       0.03390000
C        2.33110000       2.17570000       0.81080000
C        3.23580000       1.12180000       0.13550000
C        4.47650000       0.90240000       0.87410000
N        5.45290000       0.74570000       1.47210000
H       -1.74140000       2.36030000      -0.59370000
H       -1.83900000       1.82740000       1.09630000
H       -0.26580000       4.22930000       0.16820000
H        0.01350000       3.40370000       1.71540000
H        1.25270000       2.68720000      -0.99780000
H        2.87020000       3.12530000       0.89670000
H        2.10320000       1.84860000       1.83140000
H        2.69340000       0.17490000       0.04820000
H        3.49000000       1.43750000      -0.88350000
