16
Properties=species:S:1:pos:R:3 gdb_42493=T pbc="F F F"
O        0.36940000       0.07460000       0.33450000
C        0.17840000       1.22440000       0.00220000
C        1.24470000       2.05140000      -0.73010000
N        2.54050000       1.42270000      -0.84350000
C        3.29440000       1.40340000       0.41940000
C        4.56670000       0.70820000       0.26150000
C        5.60440000       0.11610000       0.13750000
C       -1.08370000       1.90250000       0.23540000
C       -2.10840000       2.51060000       0.40850000
H        0.84110000       2.26700000      -1.73030000
H        1.33800000       3.02640000      -0.23530000
H        2.42180000       0.46460000      -1.15920000
H        3.48340000       2.44550000       0.71130000
H        2.73600000       0.93800000       1.24800000
H        6.52520000      -0.40110000       0.02830000
H       -3.02310000       3.02740000       0.57210000
