21
Properties=species:S:1:pos:R:3 gdb_52844=T pbc="F F F"
C        0.01820000       1.49990000       0.01560000
C        0.01920000       0.04350000       0.00060000
C        0.01790000      -1.16140000      -0.00670000
C        0.01820000      -2.62630000      -0.02720000
C        0.68730000      -3.12420000      -1.33320000
C        0.71250000      -3.23460000       1.24070000
C       -0.13980000      -4.46200000       1.64700000
C       -1.46430000      -4.19440000       0.97360000
C       -1.38940000      -3.20460000       0.08930000
H        0.67010000       1.89140000       0.80460000
H        0.37110000       1.91040000      -0.93720000
H       -0.98790000       1.89650000       0.19320000
H        1.70230000      -2.72480000      -1.42030000
H        0.73630000      -4.21780000      -1.34040000
H        0.11920000      -2.80050000      -2.21010000
H        1.75970000      -3.48090000       1.04690000
H        0.69200000      -2.49220000       2.04180000
H        0.29390000      -5.40690000       1.29060000
H       -0.22760000      -4.56060000       2.73490000
H       -2.35430000      -4.78010000       1.17800000
H       -2.19580000      -2.84370000      -0.53900000
