14
Properties=species:S:1:pos:R:3 gdb_24094=T pbc="F F F"
C       -0.00280000      -1.16020000      -0.00460000
C        0.02220000       0.03990000       0.00220000
C        0.00680000       1.49380000       0.01100000
O        1.36210000       1.96600000      -0.00230000
C        1.50950000       3.30060000       0.00380000
C        2.68160000       3.99000000      -0.00620000
O        2.35530000       5.32590000       0.00570000
C        1.01500000       5.35220000       0.02200000
N        0.44810000       4.18510000       0.02190000
H       -0.02080000      -2.22210000      -0.01060000
H       -0.53150000       1.88310000      -0.86160000
H       -0.51050000       1.87270000       0.90080000
H        3.72350000       3.73150000      -0.02030000
H        0.54030000       6.32040000       0.03350000
