23
Properties=species:S:1:pos:R:3 gdb_52408=T pbc="F F F"
O       -0.57450000       0.77540000       0.83270000
C        0.04150000       1.02280000      -0.17180000
C        1.35220000       1.77150000      -0.22940000
C        1.26700000       3.00780000      -1.14210000
C        2.61030000       3.72770000      -1.29970000
C        2.52880000       4.97000000      -2.19640000
C        3.85710000       5.68050000      -2.34930000
C        4.84960000       5.23060000      -3.39350000
C        4.13260000       6.55040000      -3.54820000
H       -0.34450000       0.70480000      -1.17030000
H        1.64650000       2.04130000       0.78920000
H        2.10950000       1.08220000      -0.63160000
H        0.89620000       2.70500000      -2.13090000
H        0.52170000       3.70420000      -0.73640000
H        2.98400000       4.01930000      -0.30890000
H        3.35310000       3.03150000      -1.71120000
H        2.15910000       4.67980000      -3.18960000
H        1.78350000       5.66550000      -1.78600000
H        4.28750000       6.02360000      -1.41100000
H        5.90600000       5.24260000      -3.14910000
H        4.55770000       4.41820000      -4.05190000
H        3.36230000       6.62130000      -4.30950000
H        4.69860000       7.46440000      -3.40630000
