15
Properties=species:S:1:pos:R:3 gdb_28074=T pbc="F F F"
N        0.20590000       1.35610000       0.13050000
C        0.02690000       0.00210000       0.03890000
N       -1.08550000      -0.64770000      -0.12440000
C       -0.69870000      -1.99090000      -0.06390000
C       -1.70490000      -3.08790000      -0.18130000
C       -2.64090000      -3.13510000       1.02110000
O       -2.98930000      -4.15030000       1.56410000
C        0.63560000      -2.06270000       0.13090000
O        1.12370000      -0.76760000       0.19570000
H        1.11680000       1.68920000      -0.14780000
H       -0.56140000       1.88790000      -0.25160000
H       -2.33420000      -2.90300000      -1.06390000
H       -1.23490000      -4.06720000      -0.29680000
H       -2.99250000      -2.13770000       1.36210000
H        1.35890000      -2.85200000       0.22960000
