23
Properties=species:S:1:pos:R:3 gdb_119789=T pbc="F F F"
C       -0.10070000       1.58910000       0.13630000
C       -0.13620000       0.05910000       0.11690000
C        0.86330000      -0.57160000       1.10580000
C        0.86050000      -2.07170000       1.10110000
C        1.88570000      -2.87620000       0.79420000
C        1.56200000      -4.31780000       0.98890000
C        1.24380000      -4.71550000       2.41810000
C        0.12440000      -4.33140000       1.48520000
C       -0.36740000      -2.88550000       1.49270000
H        0.89450000       1.96560000      -0.12560000
H       -0.81530000       2.01430000      -0.57540000
H       -0.34850000       1.97860000       1.13020000
H       -1.15070000      -0.28600000       0.35100000
H        0.08580000      -0.30640000      -0.89330000
H        1.87320000      -0.20970000       0.87660000
H        0.62750000      -0.20420000       2.11620000
H        2.86730000      -2.53160000       0.48530000
H        1.95320000      -5.06680000       0.30880000
H        1.32310000      -5.76630000       2.67850000
H        1.53270000      -4.02950000       3.20870000
H       -0.56080000      -5.11160000       1.17540000
H       -0.76240000      -2.57850000       2.47090000
H       -1.18660000      -2.74130000       0.77530000
