22
Properties=species:S:1:pos:R:3 gdb_85671=T pbc="F F F"
C       -1.08930000       1.02300000      -0.08450000
C       -0.01710000      -0.05420000      -0.14020000
C        1.32680000       0.25520000      -0.84780000
C        2.04610000      -0.62050000       0.22000000
C        3.34290000      -0.19450000       0.71460000
N        4.36620000       0.16150000       1.12050000
C        0.77930000      -0.46660000       1.15260000
C        0.93860000       0.66650000       2.16780000
C        0.32280000      -1.74900000       1.83980000
H       -0.70250000       1.96230000       0.32190000
H       -1.47580000       1.23150000      -1.08810000
H       -1.93740000       0.71210000       0.53540000
H       -0.44640000      -0.96480000      -0.57570000
H        1.44450000      -0.05040000      -1.88910000
H        1.60840000       1.30710000      -0.75640000
H        2.12750000      -1.65550000      -0.12570000
H        1.28780000       1.59600000       1.70900000
H       -0.01510000       0.87400000       2.66360000
H        1.66610000       0.39140000       2.93770000
H        1.03330000      -2.05870000       2.61460000
H       -0.65030000      -1.60470000       2.32310000
H        0.22180000      -2.57260000       1.12500000
