14
Properties=species:S:1:pos:R:3 gdb_56484=T pbc="F F F"
O        0.09920000       1.44120000      -0.27020000
C        0.04570000       0.06920000      -0.06020000
C        0.61970000      -0.68990000      -1.18690000
N        1.05420000      -1.34950000      -2.03080000
C        0.78690000      -0.27160000       1.27510000
O        1.10420000       0.64530000       1.99350000
N        0.97080000      -1.60840000       1.50930000
C        1.53560000      -2.22430000       2.63560000
N        1.86210000      -1.59750000       3.68210000
H        0.52680000       1.79380000       0.53290000
H       -0.99700000      -0.27330000       0.05780000
H        0.74700000      -2.22590000       0.74190000
H        1.63590000      -3.30250000       2.46630000
H        2.24930000      -2.24290000       4.36870000
