20
Properties=species:S:1:pos:R:3 gdb_107809=T pbc="F F F"
C        0.07720000       1.53820000       0.11860000
C        0.00130000       0.01930000      -0.07840000
C       -1.41420000      -0.52940000      -0.08050000
C       -2.25840000      -0.47930000       1.25260000
N       -2.71500000      -1.88630000       1.09550000
C       -3.08680000      -2.13170000      -0.38270000
C       -3.36680000      -0.97810000      -1.27090000
C       -2.38030000      -0.07960000      -1.15480000
C       -1.67390000      -2.06770000       0.03960000
H        1.11710000       1.87620000       0.14910000
H       -0.42070000       2.07710000      -0.69380000
H       -0.39870000       1.84090000       1.05760000
H        0.49510000      -0.25590000      -1.01940000
H        0.56830000      -0.47670000       0.72040000
H       -1.60980000      -0.45020000       2.13290000
H       -3.04510000       0.27740000       1.33740000
H       -3.60370000      -3.07800000      -0.48300000
H       -4.26890000      -0.88010000      -1.86110000
H       -2.35710000       0.90700000      -1.60210000
H       -0.94810000      -2.87630000       0.04460000
