18
Properties=species:S:1:pos:R:3 gdb_79549=T pbc="F F F"
C       -0.17210000       1.45570000      -0.08660000
N        0.11200000       0.03270000       0.03570000
C        1.43520000      -0.51630000      -0.16620000
C        2.56570000       0.32950000       0.38970000
C        3.21150000      -0.38190000       1.54160000
C        1.88120000       0.31100000       1.78270000
C        1.73030000       1.37080000       2.72310000
C        1.58990000       2.25640000       3.52660000
C        0.76000000      -0.54310000       1.19220000
H        0.60740000       2.11350000       0.31760000
H       -0.31480000       1.69010000      -1.14620000
H       -1.10740000       1.67120000       0.43840000
H        1.55550000      -1.32860000      -0.87520000
H        3.02730000       1.18780000      -0.08340000
H        3.25110000      -1.46790000       1.55680000
H        4.07270000       0.10790000       1.98590000
H        1.46400000       3.03810000       4.23380000
H        0.27550000      -1.36730000       1.70490000
