24
Properties=species:S:1:pos:R:3 gdb_120625=T pbc="F F F"
C        0.40760000       1.49070000       0.25320000
C       -0.22980000       0.16240000      -0.17400000
C        0.48910000      -0.50370000      -1.34110000
C        0.41630000       0.25040000      -2.65730000
N        1.76980000      -1.14880000      -0.98600000
C        0.63620000      -1.98540000      -1.42040000
C        0.07520000      -2.97260000      -0.42960000
O        0.67990000      -4.22570000      -0.68100000
C        0.24060000      -5.22910000       0.20040000
H        1.46330000       1.34100000       0.49900000
H        0.34590000       2.25010000      -0.53280000
H       -0.09360000       1.89480000       1.13800000
H       -0.22880000      -0.51570000       0.68350000
H       -1.28110000       0.32150000      -0.44850000
H        0.90080000       1.22980000      -2.58250000
H        0.91160000      -0.30770000      -3.45830000
H       -0.62350000       0.41900000      -2.96000000
H        2.44550000      -1.04720000      -1.73930000
H        0.68090000      -2.40190000      -2.42620000
H        0.28370000      -2.64490000       0.59920000
H       -1.02120000      -3.05130000      -0.54330000
H        0.48390000      -4.99070000       1.24820000
H       -0.84810000      -5.38840000       0.13160000
H        0.74990000      -6.15550000      -0.07700000
