25
Properties=species:S:1:pos:R:3 gdb_100954=T pbc="F F F"
C        0.73160000       0.79010000      -0.92990000
C       -0.04850000       0.58940000       0.37840000
C       -1.39490000      -0.09460000       0.11830000
O       -2.17730000       0.77330000      -0.69310000
C        0.76520000      -0.14400000       1.44740000
C        1.15960000      -1.57770000       1.12140000
C        1.77470000       0.66880000       2.23010000
C        0.53140000       0.15520000       2.91970000
C       -0.52050000       1.10330000       3.45600000
H        0.98430000      -0.16670000      -1.39980000
H        0.12970000       1.35990000      -1.64120000
H        1.66530000       1.33130000      -0.74880000
H       -0.29420000       1.58580000       0.76280000
H       -1.23730000      -1.06210000      -0.38390000
H       -1.89770000      -0.29780000       1.07670000
H       -2.98840000       0.31470000      -0.92910000
H        1.74070000      -1.64060000       0.19510000
H        1.77680000      -1.99800000       1.92170000
H        0.28510000      -2.22880000       1.01010000
H        2.73490000       0.22200000       2.46820000
H        1.82380000       1.73530000       2.02880000
H        0.69260000      -0.70410000       3.56770000
H       -0.64010000       1.99120000       2.82950000
H       -1.50020000       0.61820000       3.53610000
H       -0.24320000       1.45030000       4.45790000
