19
Properties=species:S:1:pos:R:3 gdb_109217=T pbc="F F F"
C        0.01620000       1.41590000      -0.09200000
N       -0.03130000      -0.02600000       0.07910000
C       -1.22970000      -0.67800000       0.04170000
N       -2.37400000      -0.09280000       0.01080000
C       -3.42120000      -1.11480000       0.12530000
C       -2.73050000      -2.48100000       0.13580000
C       -3.35650000      -3.69080000       0.76950000
O       -1.97760000      -2.69960000      -1.07080000
C       -1.29070000      -2.17910000       0.08390000
H        1.03070000       1.76730000       0.10950000
H       -0.28410000       1.73170000      -1.09990000
H       -0.67310000       1.87970000       0.61680000
H        0.76230000      -0.54650000      -0.25900000
H       -3.99730000      -0.96300000       1.04830000
H       -4.12590000      -1.03310000      -0.71120000
H       -4.29380000      -3.94800000       0.26400000
H       -2.68810000      -4.55260000       0.70080000
H       -3.58470000      -3.50280000       1.82350000
H       -0.49960000      -2.80090000       0.49600000
