17
Properties=species:S:1:pos:R:3 gdb_15883=T pbc="F F F"
C       -0.31230000       1.51360000      -0.13900000
C        0.07950000       0.05650000      -0.03180000
O        1.37080000      -0.21320000      -0.70380000
C        1.91880000      -0.68300000       0.46110000
N        3.08790000      -1.04860000       0.74810000
C        0.67020000      -0.51140000       1.29010000
C        0.89640000       0.34900000       2.53740000
O        1.75550000      -0.32580000       3.42990000
H        0.46640000       2.17150000       0.25400000
H       -0.48840000       1.77870000      -1.18550000
H       -1.23750000       1.69570000       0.41770000
H       -0.68620000      -0.58810000      -0.47290000
H        3.72180000      -0.98660000      -0.04960000
H        0.22550000      -1.46340000       1.59040000
H        1.30100000       1.33240000       2.25240000
H       -0.04660000       0.52140000       3.06710000
H        2.54330000      -0.58010000       2.92580000
