18
Properties=species:S:1:pos:R:3 gdb_81202=T pbc="F F F"
C       -0.06140000       1.54320000       0.05070000
C        0.17080000       0.04630000      -0.00360000
N        1.39230000      -0.48840000      -0.78970000
C        2.22120000      -0.12190000       0.47840000
C        0.92960000      -0.75250000       1.09810000
C        0.11620000      -1.67660000       2.02820000
C       -0.18630000      -2.48580000       0.68140000
O       -1.00830000      -3.28480000       0.37210000
C        1.09450000      -1.80700000       0.03410000
H       -0.21540000       1.92840000      -0.96280000
H       -0.96910000       1.75230000       0.62670000
H        0.75590000       2.10650000       0.50580000
H       -0.74290000      -0.43980000      -0.36870000
H        3.14770000      -0.69270000       0.57110000
H        2.40690000       0.94750000       0.57770000
H        0.72430000      -2.29790000       2.69380000
H       -0.74320000      -1.28430000       2.57740000
H        1.95640000      -2.48190000       0.05900000
