15
Properties=species:S:1:pos:R:3 gdb_27744=T pbc="F F F"
N        0.05120000       1.41790000      -0.13730000
C        0.03320000       0.03340000      -0.06370000
C       -1.10010000      -0.79090000      -0.01830000
N       -0.63410000      -2.11170000      -0.03210000
C        0.70680000      -2.11150000      -0.07950000
O        1.35340000      -3.29180000      -0.09650000
C        1.17660000      -0.80350000      -0.10080000
C       -2.49820000      -0.53160000       0.03710000
O       -3.36100000      -1.40130000       0.07560000
H        0.88760000       1.84520000       0.23290000
H       -0.77850000       1.87700000       0.20810000
H       -1.25020000      -2.90720000      -0.00530000
H        2.30040000      -3.12720000      -0.14450000
H        2.21000000      -0.49560000      -0.14780000
H       -2.77500000       0.54670000       0.04380000
