19
Properties=species:S:1:pos:R:3 gdb_7142=T pbc="F F F"
C        0.47690000       1.24670000       0.08020000
C       -0.45780000       0.09790000      -0.30830000
N       -0.00200000      -0.65280000      -1.46480000
C        0.69100000      -1.81840000      -1.34180000
O        0.89010000      -2.41860000      -0.30770000
O        1.11990000      -2.22920000      -2.56370000
C        1.84120000      -3.47180000      -2.56930000
C        2.24130000      -3.76060000      -4.00390000
H        1.47020000       0.86470000       0.33280000
H        0.58490000       1.96630000      -0.73870000
H        0.08300000       1.78370000       0.94930000
H       -0.53690000      -0.61980000       0.51110000
H       -1.46460000       0.48030000      -0.51290000
H       -0.00500000      -0.21850000      -2.37330000
H        2.71300000      -3.38490000      -1.91300000
H        1.20230000      -4.26050000      -2.15890000
H        1.35980000      -3.84550000      -4.64590000
H        2.87890000      -2.96480000      -4.39960000
H        2.79550000      -4.70260000      -4.05280000
