19
Properties=species:S:1:pos:R:3 gdb_17894=T pbc="F F F"
C       -0.17140000       1.41390000      -0.01990000
N        0.05260000      -0.02380000       0.01890000
C        1.24060000      -0.49320000      -0.78020000
C        2.15730000      -0.30730000       0.45540000
C        0.82410000      -0.50420000       1.22060000
C        0.52160000      -1.99900000       1.33150000
O        1.05350000      -2.70280000       0.21260000
C        1.01070000      -1.98610000      -1.01820000
H        0.72330000       2.03370000       0.16970000
H       -0.56620000       1.68910000      -1.00370000
H       -0.92660000       1.67960000       0.72740000
H        1.43870000       0.05330000      -1.70650000
H        2.96040000      -1.02880000       0.61870000
H        2.54340000       0.70890000       0.54140000
H        0.63490000       0.03220000       2.15470000
H        0.99600000      -2.44110000       2.21490000
H       -0.56750000      -2.13520000       1.40450000
H        0.04150000      -2.11920000      -1.52120000
H        1.79920000      -2.42000000      -1.64360000
