22
Properties=species:S:1:pos:R:3 gdb_119620=T pbc="F F F"
C        0.19740000       1.37440000      -0.10270000
O        0.20700000      -0.03150000      -0.10250000
C        0.52780000      -0.57780000       1.16230000
C        0.50910000      -2.07610000       1.05680000
C       -0.76490000      -2.76190000       0.57660000
C       -0.59480000      -4.24780000       0.97250000
C        0.34120000      -4.23430000       2.20530000
C        1.18300000      -2.97960000       2.03250000
N        1.79100000      -2.71920000       0.71800000
H        1.18250000       1.79070000       0.16190000
H       -0.06350000       1.70140000      -1.11240000
H       -0.54470000       1.77990000       0.60470000
H        1.52380000      -0.24260000       1.49050000
H       -0.20850000      -0.24190000       1.91510000
H       -1.62120000      -2.31570000       1.09800000
H       -0.93780000      -2.62150000      -0.49420000
H       -1.55020000      -4.73540000       1.18080000
H       -0.13770000      -4.81230000       0.15310000
H       -0.23640000      -4.14850000       3.13410000
H        0.94360000      -5.14580000       2.28720000
H        1.75330000      -2.60650000       2.87930000
H        1.65980000      -3.50410000       0.08440000
