15
Properties=species:S:1:pos:R:3 gdb_48235=T pbc="F F F"
N       -0.52590000       1.43500000      -0.79440000
C       -0.33170000       0.18750000      -0.90900000
N       -1.03110000      -0.73900000      -0.11680000
C       -1.99100000      -0.29580000       0.79350000
N       -2.79300000      -1.11980000       1.33290000
C       -0.88160000      -2.11960000      -0.37170000
N       -0.52740000      -2.52740000      -1.51960000
C       -1.01830000      -3.06790000       0.81220000
O       -1.14910000      -4.25010000       0.62870000
H        0.09240000       1.94760000      -1.41910000
H        0.36090000      -0.31410000      -1.58460000
H       -1.95130000       0.78370000       0.93470000
H       -3.41170000      -0.65360000       1.99260000
H       -0.42260000      -3.54490000      -1.47780000
H       -0.89030000      -2.62880000       1.81400000
