18
Properties=species:S:1:pos:R:3 gdb_31846=T pbc="F F F"
C        0.07850000       1.40180000       0.03310000
O        0.00950000      -0.01210000      -0.02000000
C       -1.21980000      -0.59070000      -0.00300000
C       -2.43580000       0.09090000       0.06210000
N       -3.62240000      -0.52800000       0.07580000
C       -3.66240000      -1.86040000       0.02560000
C       -5.02040000      -2.51610000       0.04960000
C       -2.48610000      -2.62200000      -0.04260000
C       -1.25870000      -1.98760000      -0.05680000
H        1.13960000       1.65450000       0.00920000
H       -0.42250000       1.86350000      -0.82730000
H       -0.36580000       1.79380000       0.95680000
H       -2.46890000       1.17470000       0.10440000
H       -5.15910000      -3.18320000      -0.80850000
H       -5.15490000      -3.12260000       0.95300000
H       -5.79700000      -1.75020000       0.02890000
H       -2.54150000      -3.70520000      -0.08420000
H       -0.32640000      -2.53900000      -0.10930000
