20
Properties=species:S:1:pos:R:3 gdb_60598=T pbc="F F F"
O       -0.21630000       1.29800000      -0.01510000
C       -0.04040000      -0.11540000      -0.02430000
C        0.66800000      -0.52280000      -1.31020000
C        0.36490000       0.16450000      -2.58500000
N        1.66860000       0.36680000      -1.91860000
C        0.69830000      -0.61840000       1.22240000
C        1.93200000       0.22520000       1.61290000
O        1.11920000       0.99460000       2.54180000
C        0.11350000      -0.05410000       2.53420000
H        0.11720000       1.64980000       0.82210000
H       -1.03730000      -0.58770000      -0.02220000
H        0.93390000      -1.57830000      -1.34600000
H        0.40570000      -0.38560000      -3.52070000
H       -0.34830000       0.98260000      -2.55480000
H        1.60840000       1.25960000      -1.43060000
H        0.83440000      -1.70040000       1.16580000
H        2.70770000      -0.34230000       2.14230000
H        2.39770000       0.85330000       0.85000000
H       -0.90360000       0.35040000       2.50880000
H        0.22470000      -0.71850000       3.40060000
