23
Properties=species:S:1:pos:R:3 gdb_103275=T pbc="F F F"
C        0.03490000       1.49840000      -0.03380000
C        0.04070000      -0.02390000       0.03980000
C        1.09760000      -0.70890000      -0.89190000
C        1.82130000      -1.25660000       0.34280000
C        0.78870000      -0.58840000       1.26070000
C        0.91610000      -2.09240000       1.21740000
C       -0.15900000      -3.02090000       0.68330000
C        1.63180000      -2.65360000       2.43030000
O        2.32450000      -3.83620000       2.04340000
H        1.04510000       1.90310000       0.09690000
H       -0.34340000       1.84400000      -1.00220000
H       -0.60010000       1.93020000       0.74820000
H       -0.98380000      -0.39570000      -0.07650000
H        0.73330000      -1.44440000      -1.61640000
H        1.69350000       0.03430000      -1.42870000
H        2.89780000      -1.31710000       0.45440000
H        0.94830000      -0.03380000       2.18080000
H       -0.61220000      -2.66010000      -0.24180000
H        0.26900000      -4.00810000       0.48850000
H       -0.96310000      -3.14340000       1.41930000
H        2.33160000      -1.90220000       2.82940000
H        0.89620000      -2.87400000       3.22100000
H        2.65180000      -4.26470000       2.83960000
