20
Properties=species:S:1:pos:R:3 gdb_106434=T pbc="F F F"
C        0.05210000       1.54730000       0.04970000
C       -0.04310000       0.02080000      -0.05640000
C       -1.46420000      -0.48890000      -0.02910000
C       -2.54010000      -0.39730000       1.08090000
N       -3.28930000      -1.18690000      -0.00660000
C       -2.65090000      -0.17440000      -0.97670000
C       -1.95170000      -1.96940000      -0.14490000
C       -1.73910000      -2.72830000      -1.35850000
C       -1.52630000      -3.37740000      -2.34870000
H        1.09390000       1.87910000       0.01890000
H       -0.47800000       2.03480000      -0.77520000
H       -0.38550000       1.90930000       0.98610000
H        0.43090000      -0.32030000      -0.98560000
H        0.51740000      -0.44600000       0.76410000
H       -2.38330000      -0.96240000       2.00490000
H       -2.98880000       0.57830000       1.28170000
H       -3.10530000       0.81770000      -0.91490000
H       -2.59870000      -0.52900000      -2.00750000
H       -1.76760000      -2.59690000       0.73360000
H       -1.35070000      -3.95130000      -3.22500000
