18
Properties=species:S:1:pos:R:3 gdb_92517=T pbc="F F F"
C        0.31720000       1.50070000      -0.16150000
C       -0.02960000       0.00990000      -0.01660000
N        0.36610000      -0.79880000      -1.18840000
C        1.56450000      -1.58500000      -0.86810000
C        2.90470000      -0.83760000      -1.03010000
O        3.01510000      -0.64630000       0.40470000
C        1.84340000      -1.46680000       0.64700000
C        0.70330000      -0.60000000       1.19210000
O        0.43230000      -0.42100000       2.35020000
H        1.39550000       1.64280000      -0.27040000
H       -0.18070000       1.91640000      -1.04130000
H       -0.01040000       2.04640000       0.72810000
H       -1.10720000      -0.08130000       0.15510000
H       -0.38800000      -1.42110000      -1.44680000
H        1.51340000      -2.57580000      -1.31890000
H        3.73570000      -1.44350000      -1.41120000
H        2.84930000       0.10730000      -1.57920000
H        2.05670000      -2.34590000       1.26100000
