14
Properties=species:S:1:pos:R:3 gdb_131732=T pbc="F F F"
O        0.05500000       1.43640000       0.00920000
C       -0.00050000       0.03270000       0.00180000
C       -1.43110000      -0.43750000       0.01260000
N       -2.40120000       0.42430000       0.02220000
N       -3.64150000      -0.09490000       0.03150000
C       -3.98900000      -1.43870000       0.03180000
O       -5.14160000      -1.82660000       0.04020000
C       -2.78260000      -2.28000000       0.01980000
N       -1.57970000      -1.81050000       0.01100000
H        0.98110000       1.69430000      -0.00540000
H        0.48380000      -0.40540000      -0.88700000
H        0.50010000      -0.41530000       0.87650000
H       -4.39320000       0.58330000       0.03900000
H       -2.93710000      -3.35750000       0.01870000
