23
Properties=species:S:1:pos:R:3 gdb_91758=T pbc="F F F"
C       -0.47900000       1.49670000      -0.02620000
C       -0.03140000       0.03520000      -0.03620000
C        0.77230000      -0.42160000      -1.28820000
C        1.92180000      -1.27140000      -0.68550000
C        3.22780000      -0.48270000      -0.51400000
C        2.97490000       0.79740000       0.30570000
C        2.03660000       0.52900000       1.50000000
C        0.88720000      -0.42240000       1.12560000
O        1.44830000      -1.63670000       0.61830000
H        0.36160000       2.18790000      -0.14210000
H       -1.17990000       1.69340000      -0.84400000
H       -0.99000000       1.74730000       0.91010000
H       -0.92760000      -0.59120000       0.03060000
H        0.15160000      -1.01800000      -1.96100000
H        1.15350000       0.42660000      -1.86520000
H        2.09650000      -2.20030000      -1.23490000
H        3.94100000      -1.13170000       0.00680000
H        3.66300000      -0.23680000      -1.49000000
H        3.92260000       1.21870000       0.65770000
H        2.53220000       1.56010000      -0.34510000
H        2.59730000       0.04340000       2.30710000
H        1.64780000       1.47000000       1.90560000
H        0.31050000      -0.68080000       2.01900000
