16
Properties=species:S:1:pos:R:3 gdb_36998=T pbc="F F F"
C        0.03640000       1.47940000       0.03240000
C        1.35170000       1.77610000      -0.13180000
C        2.31160000       1.81110000       1.02760000
C        2.12120000       0.30260000       1.54010000
C        3.11290000       0.67270000       0.46180000
C        2.12320000       0.57340000      -0.72860000
N        1.21820000      -0.58760000      -0.52850000
C       -0.05530000       0.02930000      -0.03680000
C        1.04520000      -0.55720000       0.92590000
H       -0.66170000       2.05660000       0.62950000
H        2.60110000       2.58310000       1.73050000
H        2.44670000       0.10070000       2.55350000
H        4.18000000       0.48910000       0.46350000
H        2.51920000       0.65350000      -1.74010000
H       -0.96060000      -0.55070000      -0.18930000
H        0.80240000      -1.50140000       1.40330000
