20
Properties=species:S:1:pos:R:3 gdb_10952=T pbc="F F F"
C        0.05140000       1.56430000       0.07090000
C        0.03580000       0.06440000       0.00250000
C       -0.92540000      -0.78770000       0.78100000
C        0.55580000      -0.97900000       1.00180000
C        1.19230000      -1.78670000      -0.13630000
C        0.83870000      -3.25550000      -0.27520000
O        1.45600000      -3.73480000      -1.46380000
C        0.60390000      -0.76350000      -1.16440000
H        1.04090000       1.96620000      -0.17710000
H       -0.66760000       2.00200000      -0.63300000
H       -0.21240000       1.91910000       1.07290000
H       -1.43980000      -0.28090000       1.59250000
H       -1.52890000      -1.54700000       0.28850000
H        1.00030000      -0.82220000       1.97870000
H        2.28280000      -1.70170000      -0.11190000
H        1.19630000      -3.80570000       0.61130000
H       -0.25390000      -3.38370000      -0.31900000
H        1.19380000      -4.65110000      -1.59070000
H       -0.13120000      -1.15720000      -1.87440000
H        1.38280000      -0.24450000      -1.72760000
