17
Properties=species:S:1:pos:R:3 gdb_17834=T pbc="F F F"
N       -0.03070000       1.30860000       0.26050000
C        0.08290000       0.07640000      -0.33020000
O        1.13260000      -0.29070000      -0.83050000
C       -1.17120000      -0.74380000      -0.27250000
C       -1.68530000      -1.63060000      -1.39210000
C       -0.55660000      -2.34920000      -2.14640000
C       -0.08890000      -2.98560000      -0.79770000
C       -1.22800000      -2.24730000      -0.07900000
H        0.74970000       1.93860000       0.16730000
H       -0.91690000       1.68730000       0.54400000
H       -1.99040000      -0.25150000       0.24740000
H       -2.69210000      -1.47710000      -1.76430000
H       -0.95060000      -3.09540000      -2.84030000
H        0.16570000      -1.71550000      -2.66050000
H       -0.24050000      -4.06740000      -0.77910000
H        0.92420000      -2.74970000      -0.47430000
H       -1.82310000      -2.64910000       0.73340000
