16
Properties=species:S:1:pos:R:3 gdb_79124=T pbc="F F F"
C        0.03100000       1.48140000      -0.25110000
N        0.01080000       0.04270000      -0.00220000
C       -1.05540000      -0.47650000       0.91870000
C       -0.14980000      -1.70950000       1.17710000
O       -0.34810000      -2.20990000       2.49560000
C       -0.47940000      -1.05930000       3.24520000
O       -0.66230000      -1.04740000       4.42340000
C       -0.33490000       0.04720000       2.22350000
C        0.76020000      -0.45320000       1.20060000
H        0.99230000       1.74440000      -0.70340000
H       -0.75330000       1.72190000      -0.97540000
H       -0.11540000       2.11590000       0.63640000
H       -2.11930000      -0.44160000       0.68050000
H       -0.02590000      -2.49990000       0.44420000
H       -0.40300000       1.06950000       2.57790000
H        1.84500000      -0.39070000       1.29600000
