16
Properties=species:S:1:pos:R:3 gdb_33658=T pbc="F F F"
N        0.15800000      -1.16990000      -0.00310000
C        0.09500000      -0.01430000       0.00250000
C       -0.03470000       1.41220000       0.01020000
C       -0.72520000       2.32520000       1.08420000
C        0.64640000       3.00260000       1.24230000
N        1.19180000       2.33900000       0.00070000
C        0.61890000       3.01360000      -1.22250000
C       -0.74890000       2.33470000      -1.03980000
N       -1.53010000       3.01980000       0.03410000
H       -1.27220000       1.97620000       1.95990000
H        0.66140000       4.09490000       1.22580000
H        1.19720000       2.63480000       2.11290000
H        0.63430000       4.10570000      -1.19650000
H        1.15000000       2.65370000      -2.10840000
H       -1.31540000       1.99350000      -1.90620000
H       -2.47300000       2.64040000       0.04290000
