21
Properties=species:S:1:pos:R:3 gdb_80094=T pbc="F F F"
C       -0.13740000       1.51850000      -0.01360000
C        0.00490000       0.01160000       0.02820000
C        1.32010000      -0.73010000      -0.25530000
C        2.59350000       0.01200000      -0.38720000
C        3.11140000       0.76200000       0.58900000
C        2.43490000       0.94350000       1.92160000
C        1.44180000      -0.18130000       2.28510000
O        0.47470000       0.27280000       3.23360000
C        0.68420000      -0.77480000       1.11860000
H        0.82960000       2.02550000      -0.02590000
H       -0.67150000       1.82060000      -0.92050000
H       -0.70470000       1.88150000       0.84940000
H       -0.86450000      -0.50550000      -0.37090000
H        1.23720000      -1.61680000      -0.87630000
H        3.11170000      -0.06540000      -1.33950000
H        4.04320000       1.29710000       0.42700000
H        3.18600000       1.03050000       2.71780000
H        1.87760000       1.88990000       1.93560000
H        2.02350000      -1.00840000       2.72380000
H        0.94720000       0.55370000       4.02450000
H        0.18700000      -1.70240000       1.38780000
