14
Properties=species:S:1:pos:R:3 gdb_132705=T pbc="F F F"
F       -0.01290000       0.01990000       0.00360000
C       -0.02230000       1.35250000       0.01060000
C       -1.24340000       2.01520000       0.03040000
C       -1.24010000       3.40450000       0.03750000
C       -0.03580000       4.11420000       0.02500000
C       -0.04830000       5.59090000       0.03280000
O        0.93870000       6.29000000       0.02310000
C        1.18010000       3.41730000       0.00500000
C        1.19350000       2.03210000      -0.00230000
H       -2.16220000       1.44140000       0.03980000
H       -2.18070000       3.94740000       0.05300000
H       -1.06780000       6.03890000       0.04880000
H        2.10180000       3.98790000      -0.00440000
H        2.11770000       1.46660000      -0.01760000
