17
Properties=species:S:1:pos:R:3 gdb_41389=T pbc="F F F"
C        0.09800000       1.54310000      -0.10290000
N        1.58580000       1.28190000      -0.11110000
C        1.32180000      -0.01760000       0.33420000
N        1.76120000      -0.83910000       1.19320000
C        0.60410000      -1.71680000       1.51990000
C       -0.67680000      -1.13820000       0.81900000
O       -1.05720000      -1.88830000      -0.35820000
C       -0.64260000      -0.83280000      -1.24700000
C       -0.11330000      -0.00060000      -0.07570000
H       -0.24510000       2.06190000       0.79800000
H       -0.25970000       2.05810000      -0.99810000
H        2.21650000       1.86850000       0.42450000
H        0.75830000      -2.74960000       1.18800000
H        0.49920000      -1.73210000       2.61060000
H       -1.52640000      -0.98890000       1.49230000
H        0.08420000      -1.16530000      -1.99770000
H       -1.50380000      -0.37630000      -1.75310000
