21
Properties=species:S:1:pos:R:3 gdb_112478=T pbc="F F F"
C        0.04230000       1.53730000       0.00730000
C       -0.21210000       0.04420000      -0.22080000
C        0.66650000      -0.55250000      -1.31280000
N        2.11300000      -0.66910000      -0.99490000
C        2.05020000      -2.03920000      -0.78200000
N        2.73700000      -2.92920000      -0.20620000
C        3.97180000      -2.52890000       0.45060000
C        0.66010000      -2.12430000      -1.39880000
O       -0.29490000      -2.81550000      -0.64060000
H        1.07220000       1.72800000       0.33120000
H       -0.12860000       2.11620000      -0.90700000
H       -0.61960000       1.93430000       0.78240000
H       -0.06040000      -0.51640000       0.70790000
H       -1.25840000      -0.11780000      -0.50530000
H        0.49590000      -0.04090000      -2.26720000
H        2.67620000       0.00020000      -0.48940000
H        4.80550000      -2.50020000      -0.26360000
H        3.91400000      -1.53920000       0.93220000
H        4.22840000      -3.26080000       1.22160000
H        0.66040000      -2.47750000      -2.43740000
H        0.20170000      -3.37830000      -0.03330000
