20
Properties=species:S:1:pos:R:3 gdb_6371=T pbc="F F F"
C        0.08440000       1.53670000       0.03130000
C       -0.10610000       0.03680000      -0.17830000
C       -1.50860000      -0.45820000       0.13300000
O       -2.41330000       0.31630000       0.38030000
C       -1.72020000      -1.96550000       0.12970000
C       -3.19040000      -2.38370000      -0.05100000
C       -3.34990000      -3.89870000      -0.07280000
O       -3.99230000      -1.88710000       1.00400000
H        1.10100000       1.83740000      -0.23630000
H       -0.61980000       2.10660000      -0.57920000
H       -0.09300000       1.81180000       1.07440000
H        0.10880000      -0.24750000      -1.21880000
H        0.60120000      -0.55070000       0.42300000
H       -1.08120000      -2.42170000      -0.63630000
H       -1.35840000      -2.34320000       1.09760000
H       -3.53770000      -1.97770000      -1.01720000
H       -2.78830000      -4.34470000      -0.89960000
H       -2.99460000      -4.33270000       0.86750000
H       -4.40560000      -4.15790000      -0.18770000
H       -3.85650000      -0.92870000       1.00140000
