15
Properties=species:S:1:pos:R:3 gdb_50616=T pbc="F F F"
O        0.01180000      -0.05770000      -0.28700000
C        0.04150000       1.15000000      -0.19740000
N        1.17030000       1.89080000       0.03250000
C        1.23470000       3.36240000       0.03140000
C        2.76980000       3.59870000      -0.03250000
N        3.40800000       2.28240000       0.10310000
C        2.49150000       1.39890000       0.11750000
C        2.78300000      -0.07360000       0.30190000
O        3.76810000      -0.58460000      -0.15740000
H       -0.85770000       1.78640000      -0.29130000
H        0.70090000       3.77530000      -0.82790000
H        0.78920000       3.76820000       0.94510000
H        3.08570000       4.04510000      -0.98200000
H        3.11980000       4.26000000       0.76460000
H        2.04520000      -0.62350000       0.90920000
