22
Properties=species:S:1:pos:R:3 gdb_111282=T pbc="F F F"
C       -0.08330000       1.66480000      -0.12700000
C        0.02720000       0.13650000      -0.10320000
C       -1.31930000      -0.53840000       0.10710000
C       -1.39240000      -2.07160000       0.40020000
O       -0.19870000      -2.79400000       0.63100000
C       -2.13670000      -1.71370000       1.68020000
C       -3.36940000      -2.40490000       2.18180000
C       -1.30420000      -0.80420000       2.49040000
N       -2.07900000      -0.21700000       1.37570000
H        0.89630000       2.12990000      -0.27330000
H       -0.73970000       2.00130000      -0.93700000
H       -0.50220000       2.03930000       0.81150000
H        0.44100000      -0.22170000      -1.05600000
H        0.73870000      -0.17950000       0.66610000
H       -1.98440000      -0.27910000      -0.72420000
H       -2.03360000      -2.59710000      -0.31950000
H        0.19210000      -3.01270000      -0.22110000
H       -3.11720000      -3.38460000       2.60400000
H       -3.85330000      -1.81250000       2.96350000
H       -4.09600000      -2.56120000       1.37690000
H       -1.69710000      -0.51460000       3.46060000
H       -0.22170000      -0.86130000       2.44170000
