15
Properties=species:S:1:pos:R:3 gdb_29425=T pbc="F F F"
N       -0.02020000       1.35680000       0.32940000
C       -0.00070000      -0.01180000       0.04260000
C       -1.05400000      -0.84920000      -0.17000000
O       -0.59690000      -2.14730000      -0.33190000
C        0.74210000      -2.09140000      -0.21220000
O        1.43820000      -3.23160000      -0.39900000
C        0.93470000      -4.39270000       0.12190000
N        1.51730000      -5.47300000      -0.14950000
C        1.18490000      -0.83090000       0.01790000
H        0.76500000       1.85340000      -0.07080000
H       -0.88170000       1.80990000       0.05480000
H       -2.12050000      -0.71980000      -0.21810000
H        0.04810000      -4.23620000       0.74130000
H        1.04880000      -6.24680000       0.31750000
H        2.20730000      -0.52490000       0.16520000
