16
Properties=species:S:1:pos:R:3 gdb_34316=T pbc="F F F"
N        0.07810000      -1.09100000       0.02580000
C        0.04080000       0.06310000       0.01230000
C       -0.05980000       1.51390000       0.00950000
C       -0.84520000       2.13290000       1.18960000
O       -1.08110000       3.47570000       0.73280000
C       -0.47300000       3.57030000      -0.56290000
C        1.04570000       3.48870000      -0.37370000
O        1.24720000       2.10510000       0.00620000
C       -0.76260000       2.19690000      -1.18390000
H       -1.79650000       1.62470000       1.38480000
H       -0.23290000       2.13400000       2.09630000
H       -0.84770000       4.45890000      -1.06830000
H        1.61080000       3.70300000      -1.28870000
H        1.38640000       4.14580000       0.43170000
H       -0.25310000       2.00100000      -2.12790000
H       -1.82740000       1.97440000      -1.25600000
