17
Properties=species:S:1:pos:R:3 gdb_34598=T pbc="F F F"
N        0.06340000      -1.14200000       0.02490000
C       -0.00250000       0.01490000       0.01810000
C       -0.03620000       1.43750000       0.00790000
C       -1.17760000       2.14380000       0.03680000
C       -1.07800000       3.65450000       0.02190000
N        0.31090000       4.14910000      -0.02400000
C        1.06460000       3.36620000      -1.07410000
C        1.26640000       2.23150000      -0.03770000
C        1.12700000       3.38240000       0.99090000
H       -2.15160000       1.66610000       0.07000000
H       -1.62280000       4.05820000      -0.84200000
H       -1.56980000       4.07200000       0.91070000
H        0.50610000       3.13830000      -1.98530000
H        1.98910000       3.89400000      -1.32340000
H        2.15670000       1.60240000      -0.05970000
H        2.06460000       3.91370000       1.17560000
H        0.62470000       3.16930000       1.93760000
