18
Properties=species:S:1:pos:R:3 gdb_94529=T pbc="F F F"
C       -0.20050000       1.43750000       0.05180000
C        0.04480000      -0.06330000       0.01690000
C        0.87650000      -0.64220000      -1.16910000
C        1.90170000      -1.18160000      -0.13350000
N        1.09610000      -0.55340000       0.92550000
C        1.09500000      -0.56690000       2.27040000
O        0.22010000      -0.07150000       2.96900000
C        2.28600000      -1.24380000       2.94890000
O        3.20040000      -1.78210000       2.38020000
H        0.72900000       1.98950000      -0.12170000
H       -0.91820000       1.71580000      -0.72700000
H       -0.60470000       1.73150000       1.02300000
H       -0.89790000      -0.59690000       0.18920000
H        0.37220000      -1.40470000      -1.76290000
H        1.27620000       0.12420000      -1.83540000
H        1.95850000      -2.27010000      -0.04970000
H        2.91860000      -0.78950000      -0.20830000
H        2.20390000      -1.18400000       4.05380000
