25
Properties=species:S:1:pos:R:3 gdb_121921=T pbc="F F F"
C       -0.17180000       1.37590000       0.05110000
O       -0.13760000      -0.02570000      -0.04580000
C        0.71970000      -0.48560000      -1.07000000
C        0.70060000      -2.00920000      -1.05730000
C        1.43600000      -2.67340000      -2.23460000
C        2.92460000      -2.29090000      -2.28040000
C        1.22750000      -4.20680000      -2.17420000
C        1.65590000      -4.94520000      -3.44350000
O        1.83480000      -4.77920000      -1.01630000
H        0.82140000       1.79710000       0.27750000
H       -0.53420000       1.84380000      -0.87890000
H       -0.85610000       1.63320000       0.86360000
H        0.38100000      -0.10310000      -2.05050000
H        1.73800000      -0.09410000      -0.90930000
H        1.12260000      -2.37200000      -0.11400000
H       -0.35080000      -2.32140000      -1.06680000
H        0.96650000      -2.33140000      -3.16880000
H        3.44970000      -2.78530000      -3.10360000
H        3.05730000      -1.21500000      -2.42100000
H        3.42680000      -2.55970000      -1.34390000
H        0.15470000      -4.38270000      -2.02580000
H        2.73120000      -4.84230000      -3.63020000
H        1.43430000      -6.01150000      -3.34530000
H        1.12790000      -4.56120000      -4.32240000
H        2.78560000      -4.80570000      -1.16620000
