17
Properties=species:S:1:pos:R:3 gdb_91482=T pbc="F F F"
O        0.07580000       1.37300000       0.06550000
C       -0.00160000      -0.03230000       0.03110000
C        0.41680000      -0.62610000       1.41350000
N       -0.81300000      -1.33310000       1.87180000
C       -1.20550000      -2.02440000       0.58300000
C       -1.45370000      -0.59080000       0.03180000
C       -1.86090000      -0.30510000       1.50770000
C       -2.27120000      -0.27650000      -1.11590000
N       -2.91630000      -0.00670000      -2.03780000
H       -0.18350000       1.71660000      -0.79680000
H        0.57520000      -0.44200000      -0.80810000
H        1.24760000      -1.33070000       1.34400000
H        0.68020000       0.17590000       2.10560000
H       -0.42450000      -2.63200000       0.11820000
H       -2.11980000      -2.60500000       0.71460000
H       -2.85860000      -0.66590000       1.76050000
H       -1.69000000       0.70180000       1.89060000
