22
Properties=species:S:1:pos:R:3 gdb_103125=T pbc="F F F"
C       -0.33820000       1.56170000      -0.31840000
C       -0.00760000       0.07050000      -0.15980000
C        0.87980000      -0.50550000      -1.25670000
C        2.21790000       0.18810000      -1.44330000
C        0.81320000      -1.98860000      -1.59020000
C       -0.07540000      -2.99770000      -0.89960000
N        0.27350000      -0.99370000      -2.49190000
C       -1.00610000      -0.89360000      -2.97730000
O       -1.68270000      -1.82360000      -3.35570000
H        0.55990000       2.18500000      -0.28500000
H       -0.84880000       1.76180000      -1.26600000
H       -0.99800000       1.89110000       0.48970000
H        0.50290000      -0.08270000       0.80010000
H       -0.94090000      -0.49680000      -0.10730000
H        2.78030000       0.19600000      -0.50320000
H        2.81460000      -0.32500000      -2.20100000
H        2.08850000       1.22510000      -1.76730000
H        1.75170000      -2.41690000      -1.94510000
H       -0.99620000      -2.55860000      -0.51390000
H       -0.36290000      -3.78220000      -1.60430000
H        0.46530000      -3.46070000      -0.06750000
H       -1.33350000       0.16110000      -3.06630000
