16
Properties=species:S:1:pos:R:3 gdb_51039=T pbc="F F F"
O        0.03440000      -0.01860000       0.07170000
C        0.01590000       1.17480000       0.08750000
O        1.13440000       1.91190000      -0.09360000
C        1.00370000       3.34460000      -0.02470000
C        0.85480000       3.87500000       1.43760000
N        2.31860000       4.06320000       1.49960000
C        2.43450000       3.94870000       0.02900000
C        0.08750000       3.85280000      -1.02910000
C       -0.66850000       4.28530000      -1.85740000
H       -0.89150000       1.78570000       0.24080000
H        0.25700000       4.79420000       1.47020000
H        0.45510000       3.15660000       2.16120000
H        2.62120000       4.94800000       1.88800000
H        3.22010000       3.27160000      -0.31740000
H        2.49240000       4.89790000      -0.51640000
H       -1.33580000       4.66150000      -2.59370000
