23
Properties=species:S:1:pos:R:3 gdb_71882=T pbc="F F F"
C        0.08300000       1.54460000       0.00150000
C       -0.01630000       0.03600000      -0.01290000
C        0.46970000      -0.71870000      -1.28120000
C       -0.69300000      -1.73090000      -1.14210000
C       -0.45580000      -2.78330000      -0.03210000
C       -0.81000000      -1.73440000       1.05820000
C       -1.59430000      -2.19710000       2.26520000
C        0.35500000      -0.73220000       1.28530000
C       -1.36120000      -0.78750000      -0.07780000
H        1.13070000       1.86810000       0.05150000
H       -0.35500000       1.98330000      -0.90240000
H       -0.43580000       1.97250000       0.86700000
H        0.33650000      -0.09410000      -2.17100000
H        1.49320000      -1.11100000      -1.28200000
H       -1.17790000      -2.06810000      -2.05870000
H       -1.22020000      -3.56680000      -0.07000000
H        0.52940000      -3.26120000       0.01880000
H       -0.98320000      -2.84750000       2.90420000
H       -1.92510000      -1.35010000       2.87730000
H       -2.48400000      -2.76550000       1.97070000
H        1.36990000      -1.13870000       1.36520000
H        0.16090000      -0.11140000       2.16760000
H       -2.36460000      -0.36730000      -0.12670000
