18
Properties=species:S:1:pos:R:3 gdb_45793=T pbc="F F F"
O       -0.00910000      -0.07320000       0.31640000
C        0.00800000       1.11360000       0.04940000
N       -1.19190000       1.76980000      -0.18670000
C       -1.48150000       3.09910000      -0.50800000
C       -0.61870000       4.10700000      -0.67220000
C        0.87010000       3.98480000      -0.53510000
C        1.44840000       2.76550000      -1.32240000
C        1.29890000       1.90180000      -0.03350000
C        1.29460000       3.23770000       0.76960000
H       -1.97610000       1.13950000      -0.10200000
H       -2.54660000       3.26660000      -0.62400000
H       -1.03670000       5.07540000      -0.92140000
H        1.35200000       4.94680000      -0.71680000
H        0.91850000       2.44750000      -2.22240000
H        2.50620000       2.90690000      -1.55580000
H        2.09590000       1.19270000       0.18520000
H        2.31350000       3.49850000       1.06510000
H        0.63480000       3.31830000       1.63580000
