18
Properties=species:S:1:pos:R:3 gdb_43415=T pbc="F F F"
O        0.05090000      -0.08400000      -0.05510000
C        0.05420000       1.13800000       0.00860000
C       -1.20870000       1.85900000       0.20580000
C       -1.50040000       3.17850000       0.13910000
N       -0.70410000       4.23170000      -0.21360000
C        0.45380000       4.10260000      -1.08770000
C        1.58770000       3.26440000      -0.52910000
C        1.72710000       2.96910000       0.92860000
C        1.37680000       1.84540000      -0.04290000
H       -2.02950000       1.19620000       0.45610000
H       -2.50800000       3.48520000       0.41140000
H       -1.18180000       5.11400000      -0.28800000
H        0.15150000       3.68610000      -2.06240000
H        0.82210000       5.11780000      -1.26720000
H        2.50760000       3.40580000      -1.09060000
H        2.71550000       2.95460000       1.37340000
H        0.93860000       3.31430000       1.58720000
H        2.17160000       1.14170000      -0.26410000
