17
Properties=species:S:1:pos:R:3 gdb_30893=T pbc="F F F"
N       -0.06440000       1.34950000       0.43680000
C       -0.04610000      -0.02020000       0.11090000
C       -1.11990000      -0.81760000      -0.23150000
C       -2.56510000      -0.53560000      -0.39840000
O       -3.39970000      -1.21990000       0.54650000
N       -0.61470000      -2.11430000      -0.40710000
C        0.71700000      -2.11690000      -0.16110000
O        1.37870000      -3.29620000      -0.25630000
C        1.12700000      -0.84020000       0.15120000
H        0.76520000       1.82860000       0.10930000
H       -0.87680000       1.82680000       0.06710000
H       -2.72830000       0.55270000      -0.35410000
H       -2.93750000      -0.87020000      -1.37530000
H       -3.01490000      -1.05940000       1.41550000
H       -1.17660000      -2.94080000      -0.51590000
H        2.29540000      -3.14930000      -0.00490000
H        2.13330000      -0.52310000       0.37860000
