20
Properties=species:S:1:pos:R:3 gdb_103684=T pbc="F F F"
C        0.17880000       1.39480000       0.30690000
C        0.09840000      -0.08620000      -0.07890000
C        0.60160000      -0.39090000      -1.48960000
O       -0.13310000       0.27840000      -2.48840000
C        2.16630000      -0.32410000      -1.66190000
N        2.14880000      -1.77240000      -1.85560000
C        0.69480000      -1.90630000      -1.82760000
C        3.10940000      -2.71270000      -1.97230000
O        2.89750000      -3.90170000      -2.10200000
H        1.20060000       1.78180000       0.22320000
H       -0.47150000       2.01590000      -0.32000000
H       -0.14580000       1.54450000       1.34020000
H        0.68120000      -0.68400000       0.63170000
H       -0.93950000      -0.43290000      -0.00770000
H       -0.14140000       1.21980000      -2.28570000
H        2.47070000       0.24140000      -2.54980000
H        2.73980000       0.01460000      -0.79170000
H        0.32210000      -2.59900000      -1.06690000
H        0.25560000      -2.15490000      -2.79840000
H        4.12700000      -2.27110000      -1.92970000
