16
Properties=species:S:1:pos:R:3 gdb_27365=T pbc="F F F"
C       -0.01650000       1.43540000       0.05750000
C       -0.00240000      -0.06450000      -0.00530000
N       -0.00640000      -0.63190000      -1.18110000
C        0.00130000      -2.01340000      -1.24090000
N       -0.00390000      -2.74940000      -2.28220000
N        0.01310000      -2.67870000       0.00770000
H       -0.02010000      -3.68720000      -0.03320000
C        0.02060000      -1.99570000       1.17250000
N       -0.01090000      -2.70590000       2.33320000
N        0.01970000      -0.68540000       1.21910000
H        0.86190000       1.79240000       0.60520000
H       -0.02740000       1.86010000      -0.94560000
H       -0.89460000       1.77470000       0.61680000
H       -0.01530000      -2.14540000      -3.10220000
H        0.31220000      -3.65940000       2.34400000
H        0.16830000      -2.16010000       3.16110000
