21
Properties=species:S:1:pos:R:3 gdb_37331=T pbc="F F F"
C       -0.01700000       1.52430000       0.12640000
C        1.30370000       0.80980000      -0.02570000
C       -0.00070000       0.02200000      -0.01710000
C       -0.02920000      -0.66110000      -1.41530000
C        1.48290000      -0.97750000      -1.56670000
C        1.90810000       0.50890000      -1.42810000
C        1.05000000       1.20410000      -2.48870000
C        0.60610000       0.45090000      -3.71880000
C       -0.25530000       0.41580000      -2.48020000
H       -0.23800000       1.90120000       1.12090000
H       -0.40010000       2.15000000      -0.66870000
H        1.97920000       0.78500000       0.82250000
H       -0.28500000      -0.58250000       0.83740000
H       -0.70750000      -1.51500000      -1.46670000
H        1.85320000      -1.58170000      -0.73500000
H        1.77160000      -1.46560000      -2.50020000
H        2.97900000       0.71140000      -1.49090000
H        1.05680000       2.28790000      -2.52120000
H        0.22510000       1.07290000      -4.52250000
H        1.13360000      -0.42640000      -4.07370000
H       -1.21800000       0.91410000      -2.50630000
