19
Properties=species:S:1:pos:R:3 gdb_19359=T pbc="F F F"
C       -0.12150000       1.55930000       0.13160000
C        0.08420000       0.04330000       0.00780000
C        0.75930000      -0.37500000      -1.26480000
N        1.48730000      -1.66370000      -1.39380000
C        2.17650000      -0.37400000      -1.68390000
C        1.78990000       0.08670000      -3.11840000
C        0.82200000      -0.85570000      -3.78270000
C        0.32530000       0.07100000      -2.70360000
H        0.83420000       2.09070000       0.08410000
H       -0.75760000       1.94430000      -0.67120000
H       -0.60180000       1.80880000       1.08250000
H        0.68590000      -0.31270000       0.85480000
H       -0.88650000      -0.46610000       0.08670000
H        1.76700000      -1.93910000      -0.45220000
H        3.07220000      -0.09020000      -1.14540000
H        2.32590000       0.85940000      -3.65370000
H        0.53210000      -0.56300000      -4.78750000
H        0.88380000      -1.92200000      -3.60950000
H       -0.42690000       0.82790000      -2.88350000
