15
Properties=species:S:1:pos:R:3 gdb_78573=T pbc="F F F"
O       -0.16210000       1.47270000      -0.15640000
C       -0.00510000       0.08050000      -0.09230000
C       -1.30210000      -0.71920000      -0.10600000
C       -1.77000000      -0.81940000      -1.58260000
C       -0.68150000      -0.21310000      -2.41160000
O       -0.61840000       0.22980000      -3.52250000
C        0.38420000      -0.68840000      -1.39310000
C       -0.70950000      -1.76830000      -0.97130000
O       -0.68330000      -3.12210000      -0.82470000
H        0.70290000       1.87840000      -0.27650000
H        0.62480000      -0.23100000       0.75230000
H       -2.03270000      -0.83110000       0.68440000
H       -2.80240000      -1.02940000      -1.82540000
H        1.41580000      -0.86300000      -1.68730000
H       -0.63430000      -3.53170000      -1.69660000
