17
Properties=species:S:1:pos:R:3 gdb_72420=T pbc="F F F"
C       -0.06590000       1.45650000       0.07510000
C        0.03800000      -0.03840000      -0.02000000
C        0.72870000      -0.68420000      -1.24530000
C        1.04260000      -2.10190000      -0.68610000
C        0.43410000      -1.97730000       0.73660000
O        0.71780000      -0.61440000       1.07910000
C       -1.08440000      -1.90400000       0.54430000
O       -1.94120000      -2.71970000       0.70600000
O       -1.29220000      -0.64310000       0.06180000
H        0.93530000       1.89370000       0.09250000
H       -0.61070000       1.85190000      -0.78530000
H       -0.59430000       1.73550000       0.98900000
H        0.06590000      -0.69310000      -2.11190000
H        1.63620000      -0.13410000      -1.50240000
H        0.59470000      -2.91300000      -1.26360000
H        2.11700000      -2.27950000      -0.61230000
H        0.77660000      -2.66930000       1.50030000
