17
Properties=species:S:1:pos:R:3 gdb_127477=T pbc="F F F"
C        0.02850000       1.40940000      -0.08830000
N        0.02200000      -0.02850000       0.00490000
N       -0.03050000      -0.80080000      -1.13570000
C       -0.01870000      -2.05360000      -0.69760000
N       -0.15060000      -3.12900000      -1.57840000
C        0.05720000      -2.12400000       0.71890000
N        0.07180000      -3.19250000       1.65840000
C        0.07870000      -0.79690000       1.10540000
O        0.13500000      -0.27770000       2.34490000
H        0.90960000       1.75720000      -0.63740000
H       -0.86820000       1.76040000      -0.60780000
H        0.04660000       1.82210000       0.92130000
H        0.00120000      -2.83650000      -2.53610000
H        0.45890000      -3.90370000      -1.34920000
H        0.90740000      -3.76610000       1.59200000
H       -0.72680000      -3.80990000       1.54880000
H        0.12390000      -1.04510000       2.93740000
