18
Properties=species:S:1:pos:R:3 gdb_35953=T pbc="F F F"
N        0.26550000      -1.21360000       0.56480000
C        0.14200000      -0.09360000       0.30860000
C       -0.02370000       1.33290000       0.01430000
C       -0.83660000       1.98690000       1.16530000
O       -1.30130000       3.27090000       0.83920000
C       -0.35370000       4.31620000       0.97910000
C        0.61910000       4.43150000      -0.19610000
C        1.57920000       3.28080000      -0.37130000
C        1.32400000       1.97630000      -0.27810000
H       -0.65520000       1.40560000      -0.88370000
H       -1.72380000       1.37580000       1.35470000
H       -0.22310000       2.00180000       2.07800000
H       -0.94190000       5.23660000       1.05130000
H        0.20570000       4.19430000       1.91940000
H        0.03270000       4.56580000      -1.11670000
H        1.18990000       5.35820000      -0.06530000
H        2.59750000       3.55760000      -0.63430000
H        2.13480000       1.27810000      -0.46260000
