15
Properties=species:S:1:pos:R:3 gdb_29992=T pbc="F F F"
O        0.17120000       1.41360000      -0.21410000
C        0.00540000       0.01710000      -0.04220000
C        0.61910000      -0.54600000       1.25360000
C       -0.25680000      -1.31110000       1.93460000
C       -1.50880000      -1.29330000       1.18470000
C       -1.40560000      -0.51430000       0.06210000
N       -2.57130000      -0.49550000      -0.65070000
C       -3.38660000      -1.26190000       0.04940000
N       -2.78800000      -1.78000000       1.18020000
H       -0.39590000       1.84930000       0.43150000
H        0.52270000      -0.43900000      -0.89770000
H        1.63860000      -0.32440000       1.53990000
H       -0.07160000      -1.83380000       2.86420000
H       -4.41520000      -1.48030000      -0.19570000
H       -3.22110000      -2.39420000       1.84910000
