14
Properties=species:S:1:pos:R:3 gdb_19809=T pbc="F F F"
O        0.00060000       0.01020000       0.06870000
C       -0.01120000       1.20380000       0.07240000
C       -1.13540000       2.26560000       0.09920000
C       -0.04620000       3.37250000      -0.00050000
C        0.55260000       3.87470000       1.34050000
O        0.53560000       2.77830000       2.26230000
C        1.60660000       2.84840000       1.31240000
C        1.09100000       2.28690000      -0.04050000
H       -1.77930000       2.19730000      -0.78320000
H       -1.75350000       2.25520000       0.99920000
H       -0.13350000       4.11400000      -0.79160000
H        0.53560000       4.87300000       1.76260000
H        2.61630000       2.83130000       1.70490000
H        1.82230000       2.21410000      -0.84510000
