23
Properties=species:S:1:pos:R:3 gdb_101783=T pbc="F F F"
C        0.09400000       1.48490000       0.34390000
C       -0.01940000      -0.01450000       0.05790000
C       -1.46720000      -0.49290000      -0.06080000
C       -1.56800000      -1.97920000      -0.41000000
O       -2.08580000      -0.20490000       1.19120000
C       -3.47680000      -0.16890000       1.20060000
C       -3.97680000       0.66350000       2.38280000
C       -5.47100000       0.56890000       2.64240000
O       -3.23980000       1.34200000       3.05220000
H        1.13840000       1.78260000       0.47730000
H       -0.31670000       2.07640000      -0.48280000
H       -0.46050000       1.74060000       1.24990000
H        0.50590000      -0.27040000      -0.87020000
H        0.46140000      -0.58670000       0.86100000
H       -1.97470000       0.09680000      -0.84520000
H       -2.60980000      -2.30420000      -0.49280000
H       -1.08010000      -2.18240000      -1.36860000
H       -1.08090000      -2.58370000       0.36180000
H       -3.88420000       0.29780000       0.28390000
H       -3.93250000      -1.17320000       1.25790000
H       -5.69630000      -0.38810000       3.12820000
H       -5.78180000       1.37990000       3.30190000
H       -6.04600000       0.59940000       1.71070000
