16
Properties=species:S:1:pos:R:3 gdb_25664=T pbc="F F F"
C       -0.08190000       1.43620000       0.01050000
C       -0.01190000      -0.01570000       0.00310000
C        0.06340000      -1.22030000      -0.00260000
C        0.12820000      -2.63020000      -0.01470000
N        1.20980000      -3.38830000       0.02030000
C        0.76190000      -4.68370000       0.01090000
C       -0.61380000      -4.72490000      -0.04060000
N       -1.55070000      -5.76230000      -0.14590000
N       -1.00990000      -3.41220000      -0.05840000
H        0.92300000       1.87200000       0.02040000
H       -0.60020000       1.81880000      -0.87630000
H       -0.61320000       1.80900000       0.89380000
H        1.44460000      -5.51980000       0.04170000
H       -1.08650000      -6.65350000      -0.26920000
H       -2.15620000      -5.83150000       0.66670000
H       -1.95420000      -3.08050000      -0.16440000
