17
Properties=species:S:1:pos:R:3 gdb_83596=T pbc="F F F"
C       -0.36310000       1.44880000      -0.02480000
C        0.09080000       0.01960000       0.02370000
O       -0.99340000      -0.94770000       0.06750000
C       -0.38940000      -1.65970000       1.18060000
C        0.84490000      -0.75470000       1.17070000
C        1.94780000      -1.19260000       0.16800000
O        2.28290000      -2.55110000       0.08370000
C        1.12330000      -0.56730000      -0.97480000
O        1.19410000      -0.66190000      -2.16630000
H        0.49250000       2.13160000      -0.00910000
H       -0.92320000       1.62480000      -0.94890000
H       -1.01460000       1.67750000       0.82360000
H       -1.01200000      -1.57590000       2.07800000
H       -0.20600000      -2.71370000       0.95240000
H        1.17360000      -0.30060000       2.10260000
H        2.84320000      -0.56680000       0.33100000
H        2.32180000      -2.77850000      -0.85320000
