14
Properties=species:S:1:pos:R:3 gdb_127656=T pbc="F F F"
C        0.09160000       1.40790000      -0.02040000
N        0.03840000      -0.03630000       0.00920000
N        0.08680000      -0.78170000      -1.13710000
C        0.09730000      -2.03340000      -0.76830000
N        0.06700000      -2.13730000       0.60820000
C        0.05190000      -2.91390000       1.75150000
N        0.01960000      -2.13260000       2.80430000
N        0.01280000      -0.80340000       2.41030000
C        0.03910000      -0.85260000       1.09880000
H        1.11320000       1.76580000      -0.18460000
H       -0.55260000       1.77380000      -0.82170000
H       -0.26890000       1.77890000       0.94040000
H        0.12050000      -2.86750000      -1.44820000
H        0.06430000      -3.99030000       1.75460000
