16
Properties=species:S:1:pos:R:3 gdb_79227=T pbc="F F F"
O       -0.12120000       1.46990000      -0.10030000
C       -0.02170000       0.07350000      -0.08610000
C       -1.32320000      -0.70220000      -0.08740000
C       -0.74400000      -1.76420000      -0.94820000
N       -1.81300000      -0.89460000      -1.49350000
C       -0.80650000      -0.18870000      -2.35050000
C        0.32260000      -0.68920000      -1.42160000
C        1.67860000      -0.87550000      -1.83690000
C        2.82250000      -1.02160000      -2.18230000
H        0.76560000       1.84070000      -0.04040000
H        0.63190000      -0.28920000       0.71740000
H       -2.06100000      -0.77830000       0.69930000
H       -0.76010000      -2.84430000      -0.91040000
H       -0.78780000      -0.66570000      -3.33200000
H       -0.93680000       0.89320000      -2.43670000
H        3.82910000      -1.15560000      -2.49310000
