21
Properties=species:S:1:pos:R:3 gdb_101889=T pbc="F F F"
C       -0.16610000       1.55610000      -0.02330000
C       -0.04090000       0.02600000       0.00000000
C        0.85420000      -0.46220000      -1.14170000
O        0.26200000      -0.07170000      -2.37090000
C        0.48700000      -0.51560000       1.33890000
C       -0.44390000      -0.24770000       2.51690000
O        0.02910000      -0.93400000       3.68550000
C        0.55660000      -0.20180000       4.68200000
O        1.00600000      -0.68670000       5.67640000
H        0.78960000       2.02870000       0.23560000
H       -0.44940000       1.89240000      -1.02250000
H       -0.92060000       1.91810000       0.68160000
H       -1.03560000      -0.40570000      -0.18090000
H        1.86230000      -0.02870000      -1.02900000
H        0.95890000      -1.55730000      -1.08420000
H        0.85810000      -0.31360000      -3.08520000
H        0.63270000      -1.60010000       1.27120000
H        1.47120000      -0.07970000       1.55760000
H       -0.53160000       0.82430000       2.73010000
H       -1.44820000      -0.63500000       2.31750000
H        0.52000000       0.88760000       4.47900000
