17
Properties=species:S:1:pos:R:3 gdb_45059=T pbc="F F F"
O        0.07500000      -0.01410000       0.07180000
C        0.04080000       1.19930000       0.03960000
N       -1.07380000       1.99440000      -0.01690000
C       -0.80000000       3.40510000      -0.01550000
C       -0.14040000       3.98170000       1.21320000
C        0.70510000       3.53630000       0.03500000
C        1.23550000       2.13250000       0.05060000
C        2.48040000       1.65240000       0.70550000
N        2.40480000       1.75710000      -0.75550000
H       -1.99290000       1.60390000       0.11620000
H       -1.41900000       4.01630000      -0.66180000
H       -0.22640000       5.05060000       1.37680000
H       -0.13570000       3.37810000       2.11530000
H        1.22620000       4.27520000      -0.55960000
H        3.13280000       2.37620000       1.18550000
H        2.44720000       0.66390000       1.15490000
H        2.23410000       0.82870000      -1.14200000
