12
Properties=species:S:1:pos:R:3 gdb_2826=T pbc="F F F"
O        0.24000000       0.15930000       0.86320000
C        0.19380000       1.09770000       0.10800000
C        1.27940000       2.11620000      -0.03290000
C        1.67330000       2.87010000       1.23280000
N        2.55190000       1.92130000       0.62360000
C        2.99320000       0.75060000       1.25110000
O        3.36860000       0.71080000       2.39240000
H       -0.68960000       1.28040000      -0.54090000
H        1.30140000       2.65030000      -0.98050000
H        1.94540000       3.91800000       1.14720000
H        1.18470000       2.57190000       2.15700000
H        3.05460000      -0.09510000       0.54600000
