15
Properties=species:S:1:pos:R:3 gdb_30083=T pbc="F F F"
C        0.07340000       1.37200000       0.27810000
N       -0.00930000      -0.06570000       0.10260000
C       -0.02570000      -0.77300000      -1.06820000
N       -0.11250000      -2.06730000      -0.87240000
C       -0.16670000      -2.23300000       0.49240000
C       -0.10140000      -1.00810000       1.10040000
O       -0.13910000      -0.59510000       2.40220000
C        0.76560000      -1.15660000       3.26780000
O        0.74840000      -0.91580000       4.43100000
H        0.98080000       1.64840000       0.82230000
H        0.09600000       1.84020000      -0.70700000
H       -0.79280000       1.74460000       0.83070000
H        0.02190000      -0.27630000      -2.02630000
H       -0.26420000      -3.20340000       0.95340000
H        1.46600000      -1.82950000       2.74380000
