13
Properties=species:S:1:pos:R:3 gdb_15517=T pbc="F F F"
O       -0.16670000       0.02900000      -0.25850000
C       -0.03410000       1.21590000      -0.15170000
N        1.16760000       1.89970000      -0.00380000
C        1.24450000       3.34670000       0.15990000
C        2.74350000       3.58170000      -0.08090000
O        3.36030000       2.31760000       0.18590000
C        2.44480000       1.30850000       0.11260000
O        2.72420000       0.15350000       0.15750000
H       -0.88170000       1.93090000      -0.17000000
H        0.61810000       3.87200000      -0.56480000
H        0.94200000       3.64780000       1.16970000
H        2.95080000       3.86510000      -1.11840000
H        3.17500000       4.32690000       0.58850000
