22
Properties=species:S:1:pos:R:3 gdb_61390=T pbc="F F F"
C        0.43950000       1.37900000       0.26790000
C       -0.07050000      -0.06950000       0.15540000
C        0.21150000      -0.82100000       1.47130000
C       -1.59340000      -0.04740000      -0.08380000
C        0.56680000      -0.78980000      -1.06210000
C        2.10150000      -0.73170000      -1.19590000
O        2.82020000      -1.33460000      -0.13400000
C        2.50580000      -1.32340000      -2.49170000
N        2.80920000      -1.81590000      -3.49220000
H        1.49960000       1.42030000       0.53720000
H        0.30250000       1.92700000      -0.67150000
H       -0.11200000       1.91600000       1.04640000
H       -0.30370000      -0.33160000       2.30490000
H       -0.15580000      -1.85290000       1.42030000
H        1.27890000      -0.85030000       1.69710000
H       -1.84950000       0.52690000      -0.98080000
H       -1.99080000      -1.06060000      -0.20940000
H       -2.11070000       0.41010000       0.76600000
H        0.26050000      -1.84470000      -1.06520000
H        0.15690000      -0.35520000      -1.98260000
H        2.42940000       0.31270000      -1.20150000
H        2.56650000      -2.26400000      -0.08810000
