20
Properties=species:S:1:pos:R:3 gdb_9399=T pbc="F F F"
C       -0.07970000       1.57230000       0.12440000
C       -0.01350000       0.03930000       0.01790000
C        0.68620000      -0.45030000      -1.27080000
C       -0.04000000      -0.06530000      -2.56410000
C        0.61820000      -0.66560000      -3.80060000
O       -0.11050000      -0.22560000      -4.93580000
C        0.74570000      -0.50900000       1.21040000
O        0.32520000      -1.31960000       1.99430000
H        0.92460000       2.01170000       0.10770000
H       -0.64640000       2.00170000      -0.70500000
H       -0.56660000       1.88050000       1.05470000
H       -1.02310000      -0.38380000       0.06330000
H        1.71330000      -0.05930000      -1.29350000
H        0.77450000      -1.54360000      -1.22230000
H       -1.08260000      -0.40330000      -2.52630000
H       -0.06590000       1.02230000      -2.69030000
H        1.67200000      -0.34500000      -3.85350000
H        0.61730000      -1.76550000      -3.72600000
H        0.29150000      -0.60980000      -5.72020000
H        1.77880000      -0.09470000       1.31470000
