18
Properties=species:S:1:pos:R:3 gdb_90136=T pbc="F F F"
O        0.16250000       1.38850000      -0.10330000
C        0.07390000      -0.01520000      -0.05110000
C        0.33820000      -0.63790000       1.37220000
C       -1.13870000      -1.07600000       1.42190000
C       -2.27840000      -0.69430000       2.35290000
C       -3.17090000       0.13750000       1.42940000
C       -2.66750000       0.30190000       0.19790000
C       -1.39680000      -0.45720000       0.07720000
N       -1.50310000      -1.90800000       0.27770000
H        1.09250000       1.63320000      -0.05870000
H        0.62450000      -0.47910000      -0.88490000
H        1.09050000      -1.42960000       1.46790000
H        0.56290000       0.16420000       2.08010000
H       -2.81030000      -1.56330000       2.75710000
H       -1.92730000      -0.10610000       3.21040000
H       -4.13770000       0.51010000       1.75420000
H       -3.13410000       0.86460000      -0.60110000
H       -0.69650000      -2.40420000      -0.09850000
