14
Properties=species:S:1:pos:R:3 gdb_37845=T pbc="F F F"
C       -0.18150000       1.71640000      -0.17260000
N        1.16910000       1.61270000       0.40140000
C        1.63540000       0.51580000      -0.02390000
O        2.73470000      -0.14330000       0.44490000
C        2.46620000      -1.48820000       0.19500000
C        1.35290000      -1.72190000      -0.50530000
O       -1.66720000      -0.19690000      -0.69840000
C       -0.57260000       0.27170000      -0.60830000
C        0.80390000      -0.37870000      -0.89920000
H       -0.88640000       2.12520000       0.55670000
H       -0.20830000       2.36870000      -1.05690000
H        3.20210000      -2.16000000       0.61000000
H        0.99280000      -2.68820000      -0.82090000
H        0.96800000      -0.18320000      -1.97310000
