21
Properties=species:S:1:pos:R:3 gdb_72280=T pbc="F F F"
C       -0.13340000       1.59040000      -0.00240000
C       -0.02310000       0.09280000      -0.04850000
C        0.65150000      -0.67590000      -1.18820000
C       -0.36490000      -1.85100000      -0.96830000
O        0.13450000      -3.06880000      -0.44860000
C        1.10190000      -2.89150000       0.57530000
C        0.65940000      -1.92130000       1.68700000
C       -0.19740000      -0.76440000       1.19100000
C       -1.13060000      -0.97230000       0.03330000
H        0.83490000       2.05420000       0.22360000
H       -0.47330000       1.99220000      -0.96430000
H       -0.84170000       1.91720000       0.76620000
H        0.46070000      -0.19430000      -2.15220000
H        1.72260000      -0.88440000      -1.12010000
H       -0.92350000      -2.12050000      -1.86550000
H        1.27780000      -3.88730000       0.99190000
H        2.05220000      -2.55450000       0.13780000
H        0.05590000      -2.47080000       2.42030000
H        1.54870000      -1.56160000       2.21890000
H       -0.64240000      -0.19160000       2.00240000
H       -2.20680000      -0.86240000       0.09910000
