18
Properties=species:S:1:pos:R:3 gdb_65412=T pbc="F F F"
C        0.07140000       1.52440000      -0.20490000
C       -0.02530000       0.03090000       0.05200000
N        1.26120000      -0.71430000       0.04290000
C        0.51170000      -0.62170000       1.29490000
C        1.15150000       0.14990000       2.44110000
C        1.97170000      -0.71430000       3.28390000
C        2.63200000      -1.44930000       3.96790000
C       -1.16720000      -0.61090000      -0.55450000
C       -2.11260000      -1.13470000      -1.08330000
H        0.99040000       1.93410000       0.21710000
H        0.07980000       1.71720000      -1.28160000
H       -0.78660000       2.04880000       0.22670000
H        1.13590000      -1.62690000      -0.38690000
H       -0.02930000      -1.50780000       1.61920000
H        1.76720000       0.96060000       2.04020000
H        0.36370000       0.61440000       3.04860000
H        3.22560000      -2.08770000       4.57390000
H       -2.94910000      -1.60030000      -1.54280000
