23
Properties=species:S:1:pos:R:3 gdb_117625=T pbc="F F F"
C       -0.21780000       1.56380000       0.01300000
C       -0.00400000       0.05760000       0.00130000
O       -1.28460000      -0.54770000       0.01170000
C       -1.35650000      -1.98310000       0.00470000
C       -0.72570000      -2.57230000      -1.27460000
C       -0.70120000      -2.58580000       1.26510000
C       -2.79460000      -2.28710000       0.01700000
C       -3.96330000      -2.57380000       0.02660000
C       -5.38130000      -2.90430000       0.03750000
H        0.74410000       2.08570000       0.00540000
H       -0.79150000       1.87540000      -0.86430000
H       -0.77160000       1.86450000       0.90680000
H        0.56790000      -0.23220000      -0.89290000
H        0.58760000      -0.24320000       0.87880000
H        0.35830000      -2.42730000      -1.28590000
H       -0.92340000      -3.64600000      -1.32720000
H       -1.15810000      -2.09570000      -2.15760000
H       -1.11650000      -2.11870000       2.16140000
H       -0.89760000      -3.66000000       1.31020000
H        0.38290000      -2.44040000       1.25720000
H       -5.53590000      -3.98900000       0.03580000
H       -5.87730000      -2.50080000       0.92710000
H       -5.89210000      -2.49600000      -0.84150000
