19
Properties=species:S:1:pos:R:3 gdb_68660=T pbc="F F F"
O       -0.11560000       1.35000000       0.07400000
C        0.02400000      -0.02140000       0.01710000
C        0.64800000      -0.98150000       1.07920000
C        0.09460000      -1.88710000      -0.06130000
C        0.16050000      -3.39750000      -0.11340000
C       -0.51850000      -3.96360000      -1.34350000
O        0.01040000      -4.68370000      -2.14980000
C       -1.18230000      -0.98080000      -0.06290000
C        0.71860000      -0.88440000      -1.08190000
H        0.76150000       1.74790000       0.09370000
H        1.73610000      -0.95670000       1.19320000
H        0.13850000      -1.04380000       2.04470000
H        1.19660000      -3.74970000      -0.09650000
H       -0.35530000      -3.80790000       0.76730000
H       -1.58440000      -3.65910000      -1.46020000
H       -1.82250000      -1.03720000       0.82170000
H       -1.76710000      -0.94860000      -0.98600000
H        0.27450000      -0.85670000      -2.08060000
H        1.81170000      -0.85280000      -1.12280000
