25
Properties=species:S:1:pos:R:3 gdb_100023=T pbc="F F F"
C       -0.35290000       1.34700000      -0.07250000
O       -0.11920000      -0.04030000      -0.13060000
C        0.76570000      -0.54270000      -1.14960000
C        0.29270000      -0.13070000      -2.55760000
C        2.18500000      -0.00140000      -0.90870000
C        0.65060000      -2.07360000      -0.98880000
C       -0.77160000      -2.61060000      -1.07540000
C        1.72890000      -2.97790000      -1.53900000
C        1.57070000      -2.81250000      -0.04610000
H        0.55990000       1.92850000       0.12050000
H       -0.82570000       1.73970000      -0.98360000
H       -1.03920000       1.50740000       0.76370000
H        0.44390000       0.93740000      -2.73780000
H        0.86300000      -0.67720000      -3.31430000
H       -0.76730000      -0.35260000      -2.69990000
H        2.48990000      -0.15200000       0.12930000
H        2.91700000      -0.47810000      -1.56540000
H        2.22460000       1.07100000      -1.11800000
H       -1.20380000      -2.46940000      -2.07170000
H       -0.78350000      -3.68500000      -0.86800000
H       -1.41750000      -2.11180000      -0.34990000
H        1.41130000      -3.91080000      -1.99350000
H        2.60680000      -2.54460000      -2.00480000
H        2.34080000      -2.26530000       0.48280000
H        1.14840000      -3.63360000       0.52330000
