17
Properties=species:S:1:pos:R:3 gdb_15692=T pbc="F F F"
C       -0.45250000       1.04900000       0.06090000
O        0.09110000      -0.25790000      -0.03790000
C        0.89860000      -0.46310000      -1.18570000
C        1.56820000      -1.83230000      -1.06950000
C        0.56660000      -2.80490000      -1.73060000
N       -0.11040000      -1.94360000      -2.68710000
C       -0.01170000      -0.60580000      -2.42890000
O       -0.57670000       0.28770000      -3.02580000
H        0.34630000       1.80510000       0.10930000
H       -1.10530000       1.28740000      -0.78550000
H       -1.02620000       1.07840000       0.99020000
H        1.60520000       0.36750000      -1.31440000
H        2.50610000      -1.82980000      -1.63170000
H        1.78290000      -2.08440000      -0.03010000
H        1.06610000      -3.63970000      -2.23160000
H       -0.13480000      -3.21900000      -0.99490000
H       -0.79730000      -2.27990000      -3.34410000
