21
Properties=species:S:1:pos:R:3 gdb_119167=T pbc="F F F"
C        0.08380000       1.44020000      -0.25390000
O        0.01140000       0.04310000      -0.10450000
C        0.73790000      -0.43100000       1.00590000
C        0.61370000      -1.94020000       1.10280000
C       -0.69020000      -2.60070000       0.74470000
C        0.50770000      -2.75260000      -0.16470000
C        1.42510000      -2.50640000       2.23230000
C        0.85340000      -2.79450000       3.55640000
O        1.14870000      -3.84680000       2.63310000
H        1.12050000       1.78160000      -0.40220000
H       -0.50510000       1.70540000      -1.13510000
H       -0.32800000       1.96660000       0.62160000
H        1.80210000      -0.14600000       0.91270000
H        0.36280000       0.03680000       1.93410000
H       -0.98490000      -3.46610000       1.32670000
H       -1.49380000      -1.95670000       0.40900000
H        0.49870000      -2.21180000      -1.10290000
H        1.00370000      -3.71680000      -0.18190000
H        2.49270000      -2.27650000       2.18910000
H        1.48470000      -2.76350000       4.44300000
H       -0.20680000      -2.61370000       3.72600000
