19
Properties=species:S:1:pos:R:3 gdb_63284=T pbc="F F F"
C       -0.35470000       1.51010000       0.06340000
C        0.00680000       0.03130000      -0.01040000
O       -1.12980000      -0.76390000      -0.29890000
C        1.27840000      -0.29000000      -0.88230000
C        2.00040000      -0.71610000       0.41140000
O        3.12370000      -1.04590000       0.67660000
C        0.75420000      -0.52880000       1.21690000
C        0.64720000      -0.17410000       2.68160000
C        0.22190000      -1.52890000       2.22230000
H        0.51340000       2.11900000       0.33300000
H       -0.72350000       1.86820000      -0.90600000
H       -1.13870000       1.67670000       0.80860000
H       -1.58360000      -0.37580000      -1.05480000
H        1.11080000      -1.13010000      -1.56230000
H        1.73660000       0.53840000      -1.42960000
H        1.58470000      -0.07810000       3.21950000
H       -0.11970000       0.54100000       2.96050000
H       -0.83770000      -1.74430000       2.14750000
H        0.85910000      -2.37790000       2.44500000
