13
Properties=species:S:1:pos:R:3 gdb_5280=T pbc="F F F"
N       -0.14870000       1.33450000      -0.12350000
C        0.05470000      -0.02830000      -0.02160000
N        1.17210000      -0.65330000       0.01360000
C       -1.17320000      -0.83010000      -0.00430000
C       -1.42730000      -2.16480000       0.00920000
N       -2.79710000      -2.37340000       0.03160000
C       -3.29990000      -1.18190000       0.03090000
O       -2.38730000      -0.18450000       0.00980000
H        0.62700000       1.92950000       0.11980000
H       -1.05850000       1.69320000       0.11930000
H        1.96130000      -0.00610000      -0.01020000
H       -0.71680000      -2.97400000       0.00400000
H       -4.33800000      -0.88910000       0.04430000
