18
Properties=species:S:1:pos:R:3 gdb_94387=T pbc="F F F"
O        0.12920000       1.15390000      -0.51560000
C        0.10900000      -0.13660000       0.04180000
C       -0.01700000      -0.29130000       1.57350000
O       -1.20300000      -1.10060000       1.41120000
C       -1.27970000      -0.79800000       0.00530000
C       -2.57120000      -0.07940000      -0.45400000
N       -2.98530000      -1.25130000      -1.31230000
C       -1.89540000      -1.41140000      -2.28750000
C       -1.68780000      -1.93270000      -0.91780000
H        1.03570000       1.47610000      -0.52100000
H        0.88610000      -0.77990000      -0.39120000
H        0.77720000      -0.82960000       2.10200000
H       -0.22840000       0.65810000       2.08190000
H       -3.26290000       0.03540000       0.38280000
H       -2.46730000       0.86350000      -0.99750000
H       -2.12020000      -2.13170000      -3.06830000
H       -1.34770000      -0.53130000      -2.61980000
H       -1.63350000      -2.98810000      -0.67190000
