15
Properties=species:S:1:pos:R:3 gdb_17719=T pbc="F F F"
C       -0.04540000       1.57000000      -0.01020000
N        1.47300000       1.30440000      -0.03820000
C        1.25750000       0.16700000       0.98990000
C        1.77170000      -1.03050000       0.15490000
C        0.62750000      -2.07070000       0.28390000
C       -0.53200000      -1.39150000       0.26400000
C       -0.02240000       0.03670000       0.12250000
C        1.19600000       0.00800000      -0.83790000
H       -0.36700000       2.15830000       0.85480000
H       -0.42750000       2.00210000      -0.94030000
H        1.31960000       0.35250000       2.06490000
H        2.80510000      -1.37790000       0.15040000
H        0.77070000      -3.13900000       0.37190000
H       -1.54300000      -1.76530000       0.33060000
H        1.18510000       0.00490000      -1.93050000
