19
Properties=species:S:1:pos:R:3 gdb_92508=T pbc="F F F"
C       -0.02960000       1.50380000       0.02650000
C       -0.02890000       0.01470000       0.14370000
C       -1.04110000      -0.84490000       0.21180000
C       -2.38290000      -1.21460000      -0.36860000
O       -1.79640000      -2.48400000      -0.80170000
C       -0.64340000      -2.27530000       0.08910000
C        0.80030000      -2.20760000      -0.42170000
C        1.27860000      -0.81010000       0.10040000
O        2.29120000      -0.22010000      -0.69540000
H        0.65590000       1.83850000      -0.75820000
H       -1.03040000       1.89050000      -0.18410000
H        0.32000000       1.96960000       0.95720000
H       -3.19670000      -1.38530000       0.34850000
H       -2.75250000      -0.60950000      -1.20380000
H       -0.75520000      -2.91730000       0.97300000
H        1.44680000      -3.03010000      -0.10570000
H        0.78620000      -2.17790000      -1.51780000
H        1.74060000      -0.89930000       1.09200000
H        1.97200000      -0.19660000      -1.60480000
