21
Properties=species:S:1:pos:R:3 gdb_10346=T pbc="F F F"
C       -0.04470000       1.49680000      -0.11820000
C       -0.10990000      -0.03150000      -0.18160000
N       -1.46130000      -0.55470000       0.03020000
C       -2.28870000      -0.78210000      -1.14840000
C       -2.02530000      -2.12630000      -1.83780000
C       -1.86550000      -0.76930000       1.32310000
C       -3.27040000      -1.31700000       1.54380000
O       -1.13110000      -0.52770000       2.26940000
H        0.97580000       1.84320000      -0.31170000
H       -0.70360000       1.95880000      -0.86120000
H       -0.34290000       1.84130000       0.87480000
H        0.24110000      -0.39050000      -1.15490000
H        0.53460000      -0.45870000       0.58880000
H       -3.34210000      -0.70700000      -0.87130000
H       -2.10380000       0.03670000      -1.85450000
H       -0.97810000      -2.21770000      -2.14130000
H       -2.25400000      -2.96190000      -1.16940000
H       -2.64600000      -2.22380000      -2.73440000
H       -3.46820000      -2.22120000       0.96100000
H       -3.36400000      -1.54460000       2.60520000
H       -4.03200000      -0.57590000       1.27810000
