17
Properties=species:S:1:pos:R:3 gdb_106025=T pbc="F F F"
C        0.14010000       1.31790000      -0.15210000
O       -0.12860000      -0.04550000       0.16470000
C        0.58220000      -0.50440000       1.23310000
C        2.04520000      -1.00260000       1.10330000
C        2.67130000      -0.99990000       2.50020000
C        1.28790000      -1.51910000       2.99190000
C        0.97190000      -1.96760000       1.50920000
C        0.32860000      -0.33720000       2.70420000
O       -0.46070000       0.28080000       3.36120000
H        1.19970000       1.46750000      -0.39880000
H       -0.47190000       1.56270000      -1.02200000
H       -0.13170000       1.97640000       0.68110000
H        2.52300000      -0.91870000       0.13480000
H        3.45230000      -1.75980000       2.59300000
H        3.02430000      -0.05040000       2.91810000
H        1.16690000      -2.11580000       3.89110000
H        0.54280000      -2.85830000       1.07770000
