17
Properties=species:S:1:pos:R:3 gdb_60767=T pbc="F F F"
C        0.06060000       1.33040000      -0.48050000
N       -0.05110000      -0.10070000      -0.18830000
C        0.42810000      -0.55040000       1.04310000
O        0.92030000       0.17610000       1.87370000
C       -0.66890000      -1.00350000      -1.06800000
N       -0.96990000      -2.17660000      -0.67020000
C       -0.87060000      -0.49720000      -2.49310000
C        0.44520000      -0.56400000      -3.26310000
O        1.04760000       0.39730000      -3.66040000
H        0.60190000       1.50870000      -1.41130000
H       -0.92790000       1.79760000      -0.54010000
H        0.60710000       1.77300000       0.35110000
H        0.31270000      -1.63500000       1.15520000
H       -1.36580000      -2.72950000      -1.42610000
H       -1.59080000      -1.16060000      -2.98180000
H       -1.24880000       0.52510000      -2.53120000
H        0.82750000      -1.59590000      -3.42240000
