19
Properties=species:S:1:pos:R:3 gdb_110750=T pbc="F F F"
C        0.15150000       1.11730000       0.27370000
O       -0.44390000      -0.01360000      -0.33510000
C        0.35760000      -0.57370000      -1.32680000
C        1.42570000      -1.56760000      -1.02410000
C        1.02090000      -2.40100000       0.20090000
C       -0.22700000      -2.83880000      -0.59920000
O       -1.02840000      -3.71650000      -0.44540000
C        0.10040000      -1.98000000      -1.79180000
C       -0.19900000      -2.34820000      -3.21710000
H        1.10630000       0.86410000       0.75590000
H        0.33460000       1.91830000      -0.45850000
H       -0.54870000       1.48020000       1.02880000
H        0.58420000       0.11470000      -2.14560000
H        2.42390000      -1.51280000      -1.44040000
H        1.67010000      -3.26090000       0.38770000
H        0.85190000      -1.85970000       1.13420000
H       -1.27160000      -2.25650000      -3.41830000
H        0.33070000      -1.69570000      -3.91790000
H        0.08960000      -3.38290000      -3.42610000
