18
Properties=species:S:1:pos:R:3 gdb_107260=T pbc="F F F"
O       -0.12760000       1.46710000       0.06090000
C       -0.06470000       0.06410000      -0.10010000
C       -1.40320000      -0.61140000       0.02780000
C       -1.85310000      -1.78330000      -0.75220000
N       -2.48000000      -0.46670000      -1.01450000
C       -3.44620000      -0.10020000       0.09720000
C       -3.60770000      -1.06960000       1.25340000
C       -2.39200000      -0.19560000       1.15450000
O       -2.03410000       0.75010000       2.10970000
H       -0.57880000       1.63280000       0.89860000
H        0.33390000      -0.12240000      -1.10290000
H        0.63590000      -0.39590000       0.62020000
H       -1.22260000      -2.09650000      -1.58040000
H       -2.41730000      -2.59380000      -0.30570000
H       -4.17780000       0.66570000      -0.12260000
H       -4.32540000      -0.69640000       1.97880000
H       -3.59650000      -2.15090000       1.16750000
H       -1.74100000       0.28840000       2.90390000
