17
Properties=species:S:1:pos:R:3 gdb_43312=T pbc="F F F"
O       -0.14180000       0.19110000       0.68880000
C       -0.12690000       1.30090000       0.20810000
C       -1.29340000       2.09800000      -0.24040000
C       -0.90730000       3.32810000      -0.59620000
C        0.58650000       3.54510000      -0.45930000
C        0.97810000       4.45680000       0.68870000
C        1.70230000       3.82500000       1.61010000
C        1.97480000       2.38210000       1.25970000
C        1.13240000       2.15830000      -0.02300000
H       -2.30310000       1.70790000      -0.22320000
H       -1.57010000       4.12050000      -0.92990000
H        1.00240000       3.90770000      -1.40940000
H        0.67670000       5.49780000       0.72770000
H        2.08230000       4.28040000       2.51850000
H        3.04370000       2.21630000       1.07720000
H        1.68860000       1.68390000       2.05470000
H        1.71710000       1.67330000      -0.80930000
