14
Properties=species:S:1:pos:R:3 gdb_97490=T pbc="F F F"
O        0.00370000       1.48180000       0.01060000
C        0.01690000       0.06170000       0.00210000
C       -1.34990000      -0.43900000       0.01250000
C       -2.47350000      -0.88600000       0.02080000
C       -3.73880000      -1.38280000       0.03020000
C       -4.86320000      -1.82520000       0.03850000
C       -6.22750000      -2.33980000       0.04880000
C       -6.28990000      -3.80810000       0.04190000
N       -6.35560000      -4.96050000       0.03650000
H        0.92000000       1.77770000       0.00390000
H        0.53000000      -0.33300000      -0.89040000
H        0.54730000      -0.34350000       0.87970000
H       -6.76700000      -1.97760000       0.93420000
H       -6.78360000      -1.96860000      -0.82240000
