16
Properties=species:S:1:pos:R:3 gdb_29837=T pbc="F F F"
C       -0.03580000       1.46670000       0.02780000
N       -0.01330000       0.01820000      -0.00080000
C       -0.06430000      -0.77810000      -1.12340000
C        0.03410000      -2.09690000      -0.72770000
C        0.15830000      -2.10090000       0.70610000
C        0.12620000      -0.78820000       1.09800000
O        0.20400000      -0.17520000       2.30700000
C        0.01100000      -3.22840000      -1.57390000
C       -0.00640000      -4.20350000      -2.28240000
H        0.96940000       1.88280000       0.15740000
H       -0.45080000       1.83120000      -0.91320000
H       -0.66280000       1.81460000       0.85140000
H       -0.16930000      -0.34710000      -2.10480000
H        0.24990000      -2.96820000       1.33990000
H        0.25470000      -0.85340000       2.98710000
H       -0.02280000      -5.05840000      -2.91080000
