11
Properties=species:S:1:pos:R:3 gdb_130559=T pbc="F F F"
O        0.00020000      -0.06760000       0.00340000
C       -0.01280000       1.12980000       0.00700000
C        1.14680000       1.97850000       0.00130000
C        2.17080000       2.60680000      -0.00410000
N       -1.25830000       1.85240000       0.01820000
N       -2.45210000       1.25460000       0.02490000
C       -3.25890000       2.29410000       0.03400000
N       -2.59140000       3.48820000       0.03270000
N       -1.33080000       3.19770000       0.02270000
H        3.06990000       3.17530000      -0.00860000
H       -4.33380000       2.21260000       0.04150000
