18
Properties=species:S:1:pos:R:3 gdb_105763=T pbc="F F F"
C        0.16930000       1.11230000      -0.30220000
O        0.30480000      -0.25610000       0.05020000
C        0.66860000      -0.53900000       1.38750000
C        0.73190000      -2.07450000       1.49650000
C        2.10970000      -2.36570000       0.89180000
O        2.92540000      -1.22660000       1.18160000
C        2.13930000      -0.17670000       1.71050000
C       -0.27750000       0.07040000       2.34200000
N       -1.01720000       0.56430000       3.07990000
H        1.11820000       1.65860000      -0.22620000
H       -0.15820000       1.12380000      -1.34320000
H       -0.58300000       1.61560000       0.31830000
H        0.68560000      -2.37110000       2.54720000
H       -0.09420000      -2.53740000       0.95600000
H        2.57550000      -3.25750000       1.32340000
H        2.04420000      -2.49570000      -0.19500000
H        2.44310000       0.76970000       1.25360000
H        2.27060000      -0.08930000       2.79890000
