18
Properties=species:S:1:pos:R:3 gdb_7085=T pbc="F F F"
C       -1.29810000       0.26700000       0.56020000
C       -0.19000000      -0.79140000       0.53250000
N        0.22000000      -1.05160000      -0.83050000
C        1.39870000      -0.84850000      -1.26140000
C        2.61810000      -0.33470000      -0.54170000
N        1.56540000      -1.16240000      -2.62950000
C        2.66650000      -1.08290000      -3.44140000
O        3.77540000      -0.70770000      -3.13490000
H       -0.92350000       1.23080000       0.20090000
H       -2.12910000      -0.03310000      -0.08410000
H       -1.67540000       0.40320000       1.57850000
H        0.62620000      -0.48460000       1.20160000
H       -0.58860000      -1.73100000       0.93710000
H        2.39120000      -0.10120000       0.49730000
H        3.42240000      -1.07300000      -0.58060000
H        3.00570000       0.55660000      -1.03970000
H        0.70780000      -1.50100000      -3.04550000
H        2.41140000      -1.41980000      -4.46570000
