16
Properties=species:S:1:pos:R:3 gdb_123830=T pbc="F F F"
C       -0.00220000       1.41590000       0.01270000
C        1.44140000       1.95450000       0.00350000
C        2.17750000       1.21620000      -1.06550000
C        1.69510000       0.05180000      -1.60810000
C        0.40820000      -0.59330000      -1.20070000
O       -0.04280000      -0.01010000       0.00880000
N        2.62130000      -0.28440000      -2.53350000
N        3.63130000       0.61970000      -2.56170000
N        3.35890000       1.52790000      -1.66990000
H       -0.53230000       1.72120000       0.91770000
H       -0.55170000       1.81000000      -0.85700000
H        1.43800000       3.03380000      -0.18270000
H        1.90810000       1.79680000       0.98320000
H       -0.35150000      -0.48460000      -1.99470000
H        0.52430000      -1.66420000      -1.00050000
H        2.65660000      -1.07410000      -3.15800000
