22
Properties=species:S:1:pos:R:3 gdb_6536=T pbc="F F F"
C        0.21910000       1.55450000       0.18090000
C       -0.15140000       0.09090000      -0.09310000
C        0.60990000      -0.49880000      -1.26880000
O        0.37400000       0.19710000      -2.47310000
C        1.99410000      -1.08520000      -1.08000000
C        0.82140000      -1.98770000      -1.44230000
C        0.31220000      -2.96300000      -0.39500000
C        0.77800000      -2.55540000      -2.85050000
H        1.28860000       1.65960000       0.39510000
H       -0.02120000       2.19100000      -0.67700000
H       -0.33410000       1.94500000       1.04010000
H        0.03630000      -0.50010000       0.80770000
H       -1.22630000       0.02040000      -0.30160000
H        0.88030000       1.01530000      -2.44250000
H        2.72990000      -0.88240000      -1.85210000
H        2.40020000      -1.14550000      -0.07440000
H        0.43170000      -2.59280000       0.62570000
H       -0.74920000      -3.19150000      -0.54810000
H        0.86430000      -3.90750000      -0.46470000
H        1.42240000      -3.43930000      -2.92400000
H       -0.24030000      -2.86540000      -3.11350000
H        1.10150000      -1.82240000      -3.58940000
