21
Properties=species:S:1:pos:R:3 gdb_105004=T pbc="F F F"
C       -0.23930000       1.59230000      -0.04020000
C       -0.28190000       0.07810000      -0.25790000
C        0.66040000      -0.45130000      -1.32720000
C        1.19570000       0.40460000      -2.39510000
O        2.00840000       0.03550000      -1.27240000
C        0.59760000      -1.96360000      -1.60640000
C        0.98580000      -2.80190000      -0.37000000
C       -0.70750000      -2.35240000      -2.13870000
C       -1.78550000      -2.67100000      -2.56560000
H        0.78950000       1.93220000       0.10920000
H       -0.66250000       2.13870000      -0.88870000
H       -0.81950000       1.86440000       0.84600000
H       -0.02950000      -0.42340000       0.68430000
H       -1.29770000      -0.24440000      -0.51310000
H        1.48250000      -0.04340000      -3.34580000
H        0.93040000       1.45760000      -2.44650000
H        1.35260000      -2.15580000      -2.37890000
H        0.23530000      -2.72370000       0.42020000
H        1.07500000      -3.85640000      -0.64240000
H        1.94800000      -2.45670000       0.01800000
H       -2.73330000      -2.95500000      -2.95150000
