17
Properties=species:S:1:pos:R:3 gdb_102434=T pbc="F F F"
O        0.22540000       1.37440000       0.06840000
C        0.10020000      -0.01430000      -0.09800000
C       -1.37600000      -0.49590000       0.02090000
C       -2.21690000      -0.08950000      -1.20310000
O       -2.16560000       1.33020000      -1.32230000
C       -1.43620000      -1.93790000       0.20170000
C       -1.46360000      -3.14090000       0.31490000
C       -1.48580000      -4.57000000       0.49270000
O       -1.99400000      -5.34860000      -0.28150000
H       -0.40780000       1.78290000      -0.53720000
H        0.50070000      -0.36120000      -1.06540000
H        0.69380000      -0.48690000       0.68980000
H       -1.79500000      -0.00360000       0.90880000
H       -1.80400000      -0.57820000      -2.09710000
H       -3.25100000      -0.43550000      -1.07430000
H       -2.58750000       1.58680000      -2.14740000
H       -0.98750000      -4.91920000       1.41980000
