18
Properties=species:S:1:pos:R:3 gdb_28455=T pbc="F F F"
C       -0.03140000       1.52320000      -0.01980000
C        0.00760000       0.01730000       0.01620000
N        0.05190000      -0.60670000      -1.17150000
C        0.08690000      -1.93760000      -1.16390000
C        0.08160000      -2.74270000      -0.02560000
C        0.12320000      -4.24600000      -0.10570000
C        0.03510000      -2.07080000       1.20280000
O        0.02440000      -2.72060000       2.39430000
C       -0.00220000      -0.67890000       1.22170000
H        0.85050000       1.91310000      -0.53810000
H       -0.90690000       1.86650000      -0.58020000
H       -0.06690000       1.95370000       0.98380000
H        0.12260000      -2.41850000      -2.14110000
H        1.00860000      -4.66460000       0.39180000
H       -0.76110000      -4.71150000       0.35040000
H        0.15630000      -4.57470000      -1.14740000
H        0.05310000      -3.67100000       2.24110000
H       -0.03810000      -0.16250000       2.17380000
