18
Properties=species:S:1:pos:R:3 gdb_108025=T pbc="F F F"
C       -0.25780000       1.24190000       0.05810000
O        0.30710000      -0.05560000      -0.04560000
C        0.86990000      -0.52600000       1.12390000
C        2.13250000       0.05720000       1.74140000
C        2.24310000      -0.88750000       2.91120000
C        1.71730000      -2.23580000       2.56820000
C        0.79750000      -2.02530000       1.35910000
C       -0.00160000      -1.08690000       2.23050000
N        0.89430000      -1.31640000       3.42430000
H        0.50870000       2.00700000       0.24160000
H       -0.74230000       1.45100000      -0.89790000
H       -1.00420000       1.29310000       0.86200000
H        2.99500000      -0.01030000       1.07020000
H        2.00750000       1.09820000       2.05730000
H        2.99200000      -0.75810000       3.68390000
H        2.09640000      -3.17940000       2.94340000
H        0.48150000      -2.73330000       0.60700000
H       -1.06560000      -0.93400000       2.35100000
