17
Properties=species:S:1:pos:R:3 gdb_26993=T pbc="F F F"
C       -0.51200000       1.55520000       0.27850000
C       -0.15920000       0.10680000       0.11460000
C        0.20820000      -0.53610000      -1.05120000
C        0.33490000      -0.00650000      -2.45290000
C        1.32750000      -0.73990000      -3.24180000
N        2.09100000      -1.36390000      -3.84470000
N        0.40980000      -1.86520000      -0.76100000
C        0.19380000      -2.08420000       0.57330000
C       -0.16620000      -0.88580000       1.14010000
H       -0.09730000       2.17320000      -0.52480000
H       -1.59690000       1.71910000       0.28320000
H       -0.12470000       1.94880000       1.22370000
H       -0.61830000      -0.05020000      -2.99960000
H        0.62070000       1.05040000      -2.42520000
H        0.76090000      -2.54390000      -1.41630000
H        0.32670000      -3.06350000       1.00360000
H       -0.40870000      -0.72350000       2.17970000
