20
Properties=species:S:1:pos:R:3 gdb_102078=T pbc="F F F"
C       -0.12060000       1.59460000      -0.12310000
C        0.20750000       0.10750000       0.03670000
N        0.78530000      -0.50970000      -1.15110000
C        2.08720000      -0.90140000      -1.18880000
O        2.61400000      -1.43360000      -2.14740000
C       -0.02450000      -0.71230000      -2.35550000
C        0.27510000       0.26580000      -3.49470000
C        0.07690000      -2.17230000      -2.81860000
O       -0.13800000      -2.52600000      -3.94570000
H        0.77570000       2.16600000      -0.38130000
H       -0.86750000       1.76040000      -0.90490000
H       -0.52590000       1.99020000       0.81330000
H        0.92430000      -0.02690000       0.85320000
H       -0.69690000      -0.44590000       0.32090000
H        2.62560000      -0.69170000      -0.24500000
H       -1.07100000      -0.59540000      -2.03860000
H       -0.32520000      -0.00510000      -4.36570000
H        0.04340000       1.29300000      -3.20370000
H        1.32870000       0.19870000      -3.77200000
H        0.28750000      -2.89390000      -2.00010000
