22
Properties=species:S:1:pos:R:3 gdb_107759=T pbc="F F F"
C       -0.05670000       1.52780000      -0.07040000
C        0.02570000       0.00110000       0.05540000
C        0.76000000      -0.50800000       1.28720000
C        0.22500000      -0.12110000       2.69170000
C        1.28910000      -0.85250000       3.49890000
C        1.69400000      -2.05330000       2.71500000
C        0.87550000      -2.04810000       1.43220000
N        2.56630000      -0.84990000       2.73640000
C        2.24920000      -0.13390000       1.47750000
H        0.93730000       1.98440000      -0.11260000
H       -0.58790000       1.81110000      -0.98430000
H       -0.59260000       1.97450000       0.77310000
H       -0.99070000      -0.41440000       0.05030000
H        0.51880000      -0.40610000      -0.83760000
H        0.22460000       0.95890000       2.86890000
H       -0.78330000      -0.50550000       2.88060000
H        1.36080000      -0.78700000       4.57790000
H        2.09060000      -2.95710000       3.16160000
H       -0.09830000      -2.53550000       1.55100000
H        1.39520000      -2.51100000       0.58630000
H        2.89140000      -0.49580000       0.66760000
H        2.42050000       0.93860000       1.60950000
