20
Properties=species:S:1:pos:R:3 gdb_52811=T pbc="F F F"
C        0.01880000       1.52670000      -0.07310000
C        0.02370000       0.07150000      -0.02550000
C        0.02780000      -1.13350000       0.00480000
C        0.04250000      -2.58820000       0.04220000
C        0.93670000      -3.16440000      -1.05400000
C        0.27470000      -3.24800000       1.44630000
C       -1.12390000      -3.83250000       1.31150000
C       -2.13120000      -2.78220000       1.07560000
N       -1.33770000      -3.24850000      -0.07580000
H        0.91540000       1.91030000      -0.57240000
H       -0.85120000       1.90060000      -0.62430000
H       -0.01340000       1.96130000       0.93210000
H        1.97230000      -2.83980000      -0.91490000
H        0.89840000      -4.25730000      -1.02990000
H        0.59140000      -2.82960000      -2.03560000
H        1.07220000      -3.99280000       1.41450000
H        0.44420000      -2.57690000       2.29180000
H       -1.39690000      -4.85900000       1.53460000
H       -3.17120000      -3.08760000       1.01120000
H       -1.97220000      -1.77370000       1.44900000
