17
Properties=species:S:1:pos:R:3 gdb_18062=T pbc="F F F"
N       -0.02380000      -0.97400000      -0.49300000
C       -0.01210000       0.12040000      -0.12210000
C        0.02590000       1.50570000       0.34800000
C        1.40020000       2.13870000       0.15990000
C        1.91500000       2.72650000      -1.12320000
C        0.81410000       3.45560000      -1.90470000
C        0.55140000       4.36570000      -0.66100000
C        1.65350000       3.62000000       0.10330000
H       -0.74900000       2.06800000      -0.18110000
H       -0.25120000       1.51800000       1.40890000
H        2.17610000       1.60750000       0.70570000
H        2.85990000       2.40170000      -1.54160000
H        1.20850000       4.02380000      -2.74890000
H       -0.01610000       2.84130000      -2.26850000
H        0.81550000       5.40670000      -0.85610000
H       -0.45210000       4.34890000      -0.22230000
H        2.36640000       4.08610000       0.77330000
