21
Properties=species:S:1:pos:R:3 gdb_107002=T pbc="F F F"
C       -0.24680000       1.54100000      -0.02200000
C       -0.01730000       0.03600000      -0.03250000
C        1.13710000      -0.56120000      -0.93180000
O        1.91850000       0.29750000      -1.72950000
C        1.76650000      -1.19570000       0.30810000
C        2.04650000      -0.15200000       1.36100000
C        0.63370000      -0.64360000       1.18640000
C       -0.12750000      -1.31480000       2.28970000
O       -0.82360000      -0.38390000       3.11220000
H        0.67060000       2.10270000       0.18060000
H       -0.62540000       1.88140000      -0.99070000
H       -0.97820000       1.80790000       0.74750000
H       -0.95900000      -0.46820000      -0.27440000
H        0.74150000      -1.31390000      -1.61790000
H        2.48550000       0.81480000      -1.14870000
H        2.24430000      -2.16810000       0.34690000
H        2.56930000      -0.52870000       2.23550000
H        2.32900000       0.86570000       1.10010000
H       -0.90360000      -1.96910000       1.87660000
H        0.55240000      -1.94740000       2.88420000
H       -0.17310000       0.24330000       3.44520000
