19
Properties=species:S:1:pos:R:3 gdb_65215=T pbc="F F F"
O        0.62180000       0.76960000      -1.42720000
C        0.13470000      -0.02100000      -0.37300000
C        1.09940000      -1.03350000       0.15570000
C        0.72260000       0.16780000       1.00260000
C       -1.31510000      -0.39240000      -0.58240000
O       -1.95040000      -1.04410000       0.55480000
C       -3.04470000      -0.12350000       0.47830000
C       -2.61150000       1.27630000       0.76770000
C       -2.40040000       0.69160000      -0.61800000
H        0.22150000       1.64260000      -1.34120000
H        0.71040000      -2.00140000       0.45150000
H        2.08370000      -1.04370000      -0.29750000
H        1.46230000       0.95320000       1.11210000
H        0.09000000      -0.00910000       1.86350000
H       -1.39510000      -1.03970000      -1.46550000
H       -4.04530000      -0.51920000       0.60460000
H       -3.41690000       2.00300000       0.81750000
H       -1.78000000       1.46600000       1.43700000
H       -2.83120000       1.11660000      -1.51390000
