15
Properties=species:S:1:pos:R:3 gdb_4939=T pbc="F F F"
N        0.20180000       0.92660000       0.07080000
H       -1.83810000      -1.09790000       0.74160000
H        1.15530000       1.27490000       0.09370000
H       -0.14960000       1.10580000      -0.86540000
C       -0.61910000       1.65240000       1.05140000
C       -1.98230000       1.04800000       1.13560000
C       -3.15420000       1.64530000       0.92810000
O       -4.25710000       0.82020000       1.06910000
C       -3.80000000      -0.45060000       1.39090000
O       -4.54800000      -1.36160000       1.56730000
C       -2.27590000      -0.39300000       1.45530000
H       -0.11470000       1.55850000       2.02300000
H       -0.71930000       2.73290000       0.85390000
H       -3.39230000       2.66770000       0.67200000
H       -1.93840000      -0.70600000       2.45050000
