17
Properties=species:S:1:pos:R:3 gdb_103366=T pbc="F F F"
O       -0.13640000       1.46890000      -0.05410000
C       -0.01640000       0.04620000       0.03760000
C       -1.44330000      -0.49590000       0.02940000
O       -2.20960000       0.18080000       0.97110000
C       -2.02430000      -0.79670000      -1.42110000
O       -1.16200000      -1.97960000      -1.41440000
C       -1.55270000      -2.05860000      -0.00480000
C       -3.07090000      -2.26260000      -0.11080000
C       -3.38930000      -1.40200000      -1.07980000
H        0.71320000       1.86350000       0.16000000
H        0.55940000      -0.36860000      -0.79430000
H        0.46490000      -0.23980000       0.98480000
H       -1.85430000       1.08040000       0.99740000
H       -1.89590000      -0.14300000      -2.28260000
H       -0.94130000      -2.72530000       0.60330000
H       -3.68340000      -2.92000000       0.48710000
H       -4.34440000      -1.14430000      -1.51170000
