19
Properties=species:S:1:pos:R:3 gdb_103047=T pbc="F F F"
C        1.01590000       0.34540000       1.13200000
C        0.02950000       0.13470000      -0.02400000
C        0.68330000      -0.51710000      -1.23710000
C        1.77240000       0.27960000      -1.77710000
N        2.64680000       0.93000000      -2.16260000
C        0.85230000      -1.98670000      -1.43750000
C       -0.31140000      -2.78730000      -0.85910000
C       -1.22500000      -1.91710000      -1.76040000
N       -0.04740000      -1.18540000      -2.35710000
H        1.42600000      -0.60850000       1.47900000
H        1.85270000       0.98140000       0.83020000
H        0.51440000       0.82500000       1.97720000
H       -0.80620000      -0.47620000       0.32210000
H       -0.39370000       1.09620000      -0.33680000
H        1.79490000      -2.39900000      -1.78260000
H       -0.29010000      -3.83350000      -1.16720000
H       -0.45180000      -2.74550000       0.22430000
H       -1.71270000      -2.48180000      -2.55630000
H       -1.96750000      -1.27370000      -1.28230000
