14
Properties=species:S:1:pos:R:3 gdb_48120=T pbc="F F F"
O       -0.92880000       1.56250000       0.17420000
C        0.09940000       1.07790000      -0.22190000
C        1.40320000       1.87780000      -0.33960000
O        2.41080000       1.32050000      -0.69470000
C        1.30770000       3.33900000       0.06060000
C        1.31720000       3.52680000       1.61930000
N        2.56200000       4.25740000       1.88390000
C        3.09300000       4.47440000       0.75680000
O        2.48010000       4.04200000      -0.37590000
H        0.20440000       0.01750000      -0.53080000
H        0.42560000       3.78940000      -0.40010000
H        0.45210000       4.09940000       1.96380000
H        1.31690000       2.57530000       2.16040000
H        4.02460000       5.00010000       0.58470000
