13
Properties=species:S:1:pos:R:3 gdb_27671=T pbc="F F F"
O        0.05210000       1.32150000       0.17520000
C        0.06160000      -0.01220000       0.01880000
N        0.06360000      -0.67860000      -1.09030000
C        0.07480000      -2.03100000      -0.69780000
C        0.08090000      -3.14090000      -1.56420000
C        0.08630000      -4.13330000      -2.25100000
C        0.07880000      -2.10090000       0.67340000
O        0.08870000      -3.12060000       1.54910000
N        0.07050000      -0.80650000       1.13730000
H        0.04700000       1.69740000      -0.71450000
H        0.09070000      -4.99190000      -2.87510000
H        0.09350000      -3.93910000       1.03570000
H        0.07070000      -0.51040000       2.09890000
