18
Properties=species:S:1:pos:R:3 gdb_79210=T pbc="F F F"
C        0.02510000       1.59570000       0.00270000
C        0.09780000       0.07580000       0.00110000
C        0.77120000      -0.70770000      -1.12550000
C        1.23780000      -1.76730000      -0.20760000
N        2.24470000      -0.88200000      -0.84590000
C        2.47440000      -0.20980000       0.46930000
C        1.08630000      -0.68930000       0.95630000
C        0.76840000      -0.89470000       2.33700000
C        0.50500000      -1.06650000       3.49890000
H        0.98800000       2.06270000      -0.21900000
H       -0.68760000       1.94150000      -0.75380000
H       -0.31830000       1.96490000       0.97510000
H       -0.89990000      -0.34780000       0.15780000
H        0.47640000      -0.78640000      -2.16370000
H        1.24380000      -2.84870000      -0.23380000
H        3.28960000      -0.72500000       0.98180000
H        2.67600000       0.86520000       0.43440000
H        0.27240000      -1.21800000       4.52380000
