17
Properties=species:S:1:pos:R:3 gdb_128244=T pbc="F F F"
C        0.06280000       1.35330000      -0.09900000
N        0.01010000      -0.06350000       0.21270000
C       -1.21440000      -0.70220000       0.08720000
C       -2.48890000      -0.23130000       0.03380000
O       -3.37400000      -1.25940000      -0.02690000
N       -2.67350000      -2.46030000      -0.03080000
C       -1.41100000      -2.12020000       0.03820000
O       -0.39140000      -2.98770000       0.04690000
C       -0.75510000      -4.36860000      -0.02730000
H        1.09400000       1.70290000      -0.01460000
H       -0.31280000       1.59550000      -1.10660000
H       -0.53840000       1.91230000       0.62720000
H        0.76420000      -0.60390000      -0.18720000
H       -2.91690000       0.75720000       0.03870000
H       -1.38020000      -4.64820000       0.82620000
H       -1.30740000      -4.57320000      -0.94960000
H        0.18170000      -4.92620000      -0.01180000
