22
Properties=species:S:1:pos:R:3 gdb_101654=T pbc="F F F"
C       -0.01660000       1.49730000       0.29430000
C       -0.04790000      -0.00890000       0.01780000
C       -1.48240000      -0.53300000      -0.06590000
O       -2.10230000      -0.32520000       1.19330000
C        0.70930000      -0.38260000      -1.27140000
N        2.11830000      -0.03270000      -1.26700000
C        3.01960000      -0.75980000      -0.38960000
C        2.62140000       0.91380000      -2.11210000
O        3.78470000       1.24950000      -2.18820000
H        1.00750000       1.85950000       0.41800000
H       -0.47060000       2.05450000      -0.53500000
H       -0.57920000       1.72630000       1.20140000
H        0.42070000      -0.53200000       0.86170000
H       -2.02300000      -0.00290000      -0.86850000
H       -1.47310000      -1.60370000      -0.32880000
H       -3.02380000      -0.59070000       1.12530000
H        0.61270000      -1.46310000      -1.45230000
H        0.24520000       0.12690000      -2.12490000
H        2.92190000      -1.84030000      -0.55090000
H        4.03590000      -0.44400000      -0.62490000
H        2.81480000      -0.54830000       0.66580000
H        1.82690000       1.35700000      -2.74420000
