17
Properties=species:S:1:pos:R:3 gdb_84198=T pbc="F F F"
C       -0.14610000       1.58950000       0.02240000
C        0.03140000       0.06390000      -0.02880000
C        0.82680000      -0.47070000      -1.18530000
C        1.84750000      -1.25760000      -0.80570000
C        1.93240000      -1.40310000       0.69070000
C        0.81220000      -0.48080000       1.19220000
O        0.58040000      -0.19830000       2.33700000
C        2.77490000      -1.90490000      -1.73810000
O        3.69010000      -2.62070000      -1.39770000
H        0.81950000       2.09970000      -0.04570000
H       -0.77750000       1.94050000      -0.79870000
H       -0.61370000       1.86820000       0.96990000
H       -0.96870000      -0.39660000      -0.00990000
H        0.59200000      -0.23650000      -2.21950000
H        1.75960000      -2.43180000       1.03010000
H        2.90180000      -1.10840000       1.10690000
H        2.57650000      -1.68830000      -2.81170000
