21
Properties=species:S:1:pos:R:3 gdb_57258=T pbc="F F F"
C        0.27760000       1.44380000       0.24260000
C       -0.00180000      -0.05460000       0.01350000
N        0.48050000      -0.78510000       1.19490000
C       -1.46890000      -0.24720000      -0.14290000
N       -2.60910000      -0.42540000      -0.22290000
C        0.70670000      -0.55410000      -1.26820000
C        0.15790000       0.00680000      -2.56970000
C        2.19370000      -0.79430000      -1.18840000
C        1.24780000      -1.96400000      -1.31740000
H        1.35150000       1.58430000       0.38450000
H       -0.05420000       2.04570000      -0.60440000
H       -0.24840000       1.80150000       1.13300000
H        0.14780000      -0.32290000       2.03590000
H        0.09110000      -1.72240000       1.21220000
H        0.25650000       1.09620000      -2.62340000
H        0.70720000      -0.41010000      -3.41820000
H       -0.89980000      -0.24300000      -2.70120000
H        2.79540000      -0.50950000      -2.04490000
H        2.67220000      -0.66720000      -0.22490000
H        1.14910000      -2.61010000      -0.45390000
H        1.18280000      -2.48440000      -2.26680000
