19
Properties=species:S:1:pos:R:3 gdb_35260=T pbc="F F F"
N       -0.18420000      -1.20200000       0.42230000
C       -0.11470000      -0.05530000       0.29190000
C       -0.03560000       1.37130000       0.08710000
N        0.58610000       2.16370000       1.16770000
C        1.27870000       2.06790000      -0.11940000
C        2.59080000       1.34100000      -0.15020000
C        3.17100000       0.91220000      -1.52880000
C        4.58070000       1.30790000      -1.01180000
C        3.89560000       2.15480000       0.09490000
H       -0.89990000       1.78340000      -0.42680000
H        0.09390000       3.04820000       1.26200000
H        1.22060000       2.93270000      -0.78180000
H        2.54390000       0.48710000       0.53100000
H        3.00500000      -0.11920000      -1.84620000
H        2.83390000       1.58110000      -2.32810000
H        5.11180000       0.44920000      -0.59230000
H        5.24850000       1.82390000      -1.70490000
H        3.77830000       3.19970000      -0.21280000
H        4.31910000       2.13520000       1.10110000
