16
Properties=species:S:1:pos:R:3 gdb_11782=T pbc="F F F"
O       -0.08780000       0.00610000       0.11530000
C        0.03460000       1.16890000      -0.17670000
C        1.32680000       1.91830000      -0.06760000
C        1.64700000       2.79460000       1.18040000
C        2.46030000       3.50160000       0.07570000
C        3.57510000       2.49170000      -0.26980000
C        2.67210000       1.22060000      -0.36830000
O        1.40700000       3.13380000      -0.87500000
H       -0.82100000       1.78730000      -0.52680000
H        0.78530000       3.38270000       1.49730000
H        2.16060000       2.33240000       2.02640000
H        2.69010000       4.56660000       0.09220000
H        4.05420000       2.74060000      -1.21840000
H        4.34370000       2.42540000       0.50460000
H        2.91020000       0.44350000       0.35980000
H        2.66880000       0.77620000      -1.36490000
