17
Properties=species:S:1:pos:R:3 gdb_108297=T pbc="F F F"
O        0.01470000       1.51110000      -0.14530000
C        0.05750000       0.09890000       0.01300000
C       -1.32700000      -0.50580000       0.05080000
C       -2.20680000      -0.36020000       1.32370000
N       -2.62420000      -1.78540000       1.21740000
C       -1.66500000      -2.03230000       0.10610000
C       -2.40690000      -1.81110000      -1.23900000
O       -3.07470000      -2.46150000      -1.99060000
N       -2.05640000      -0.46240000      -1.22730000
H       -0.23700000       1.69240000      -1.05670000
H        0.64290000      -0.37950000      -0.78570000
H        0.57060000      -0.08460000       0.96260000
H       -1.60360000      -0.13350000       2.21060000
H       -3.03580000       0.35240000       1.26950000
H       -2.42830000      -2.33260000       2.04570000
H       -0.94380000      -2.84310000       0.21020000
H       -2.57340000       0.30520000      -1.63660000
