14
Properties=species:S:1:pos:R:3 gdb_130353=T pbc="F F F"
N       -0.00250000       1.36830000       0.08930000
C       -0.03210000       0.01740000      -0.00110000
N       -1.14190000      -0.63450000       0.01380000
C       -1.13360000      -1.99530000      -0.02040000
C       -2.19300000      -2.86810000      -0.06170000
N       -3.55470000      -2.61020000      -0.15850000
N       -1.67720000      -4.13190000      -0.06780000
N       -0.40860000      -4.10190000      -0.03470000
O       -0.00580000      -2.74150000      -0.01040000
H        0.84310000       1.86730000      -0.12200000
H       -0.87390000       1.87070000       0.02720000
H        0.95020000      -0.45740000      -0.05860000
H       -3.78860000      -1.68310000       0.17140000
H       -4.11520000      -3.31520000       0.30220000
