15
Properties=species:S:1:pos:R:3 gdb_2447=T pbc="F F F"
C       -0.03340000       1.55570000       0.14840000
C        1.49090000       1.38530000      -0.01810000
C        2.12770000       0.99020000       1.31000000
O        1.21270000       0.22040000       2.08660000
C        0.36980000      -0.63640000       1.31950000
C        0.01750000       0.02190000      -0.01010000
O        1.26430000       0.14790000      -0.75880000
H       -0.41150000       1.96980000       1.08420000
H       -0.48780000       2.04180000      -0.71490000
H        2.07790000       2.11560000      -0.58120000
H        3.04780000       0.42290000       1.10210000
H        2.38210000       1.86610000       1.91730000
H        0.86290000      -1.59890000       1.11400000
H       -0.51970000      -0.81890000       1.93300000
H       -0.75940000      -0.50980000      -0.56580000
