19
Properties=species:S:1:pos:R:3 gdb_52416=T pbc="F F F"
O       -0.24670000       0.37560000       0.70010000
C        0.08210000       1.14440000      -0.16320000
C        1.30790000       2.03700000      -0.07490000
O        1.40630000       2.76650000      -1.26930000
C        2.50710000       3.65350000      -1.30130000
C        2.48180000       4.40290000      -2.62890000
C        3.64690000       5.35230000      -2.75650000
C        3.52250000       6.66820000      -3.39330000
O        3.58280000       6.54840000      -1.97140000
H       -0.49080000       1.26950000      -1.10850000
H        1.20310000       2.69480000       0.80520000
H        2.19510000       1.40540000       0.10250000
H        2.45210000       4.36820000      -0.46530000
H        3.45110000       3.09260000      -1.19120000
H        2.50670000       3.67680000      -3.45040000
H        1.54200000       4.95880000      -2.70780000
H        4.63450000       4.88580000      -2.75790000
H        4.39100000       7.12870000      -3.86210000
H        2.55900000       6.97850000      -3.79590000
