20
Properties=species:S:1:pos:R:3 gdb_37959=T pbc="F F F"
C       -0.01800000       1.55250000       0.13270000
C        1.52310000       1.54020000       0.09950000
C        1.54330000       0.04440000      -0.11290000
C       -0.00210000      -0.00420000      -0.02920000
C       -0.79640000      -0.65280000      -1.15540000
O       -0.70300000       0.01540000      -2.39860000
C        0.59270000       0.03390000      -2.96660000
C        1.48230000       1.16090000      -2.44230000
N        2.05600000       0.95690000      -1.10750000
H       -0.42530000       1.87300000       1.09360000
H       -0.50740000       2.11570000      -0.66610000
H        2.17320000       2.16420000       0.70410000
H        2.21250000      -0.71160000       0.28700000
H       -0.29440000      -0.48190000       0.91300000
H       -0.48220000      -1.70640000      -1.26380000
H       -1.86440000      -0.65080000      -0.90950000
H        1.09390000      -0.93740000      -2.82530000
H        0.44960000       0.18100000      -4.04330000
H        2.32070000       1.27460000      -3.14320000
H        0.91290000       2.09800000      -2.47560000
