16
Properties=species:S:1:pos:R:3 gdb_71454=T pbc="F F F"
O       -0.13640000       1.41190000      -0.07760000
C       -0.01900000       0.03710000      -0.05420000
C        0.70910000      -0.81380000      -1.09330000
C       -0.27600000      -1.99460000      -0.73520000
C       -1.16100000      -0.96130000       0.01490000
C       -0.28540000      -0.77830000       1.22050000
N        0.41670000      -2.00780000       1.46820000
C        0.43340000      -2.81530000       0.34700000
O        0.98450000      -3.88610000       0.23780000
H        0.63180000       1.79460000       0.36150000
H        0.49790000      -0.43980000      -2.09710000
H        1.78390000      -0.99430000      -0.98310000
H       -0.67360000      -2.58120000      -1.55770000
H       -2.23550000      -0.84350000      -0.01670000
H       -0.66780000      -0.23570000       2.07630000
H        1.09560000      -2.13420000       2.20130000
