17
Properties=species:S:1:pos:R:3 gdb_30267=T pbc="F F F"
C       -0.59250000       1.43630000      -0.03240000
C        0.19690000       0.14510000       0.02430000
C        1.09900000      -0.13750000      -1.21490000
N        2.24440000      -0.73610000      -0.55940000
C        3.44080000      -1.35610000      -0.82310000
N        4.12880000      -1.52310000       0.28080000
C        3.37670000      -0.98120000       1.31470000
C        2.21780000      -0.49040000       0.78570000
O        1.10220000       0.18300000       1.16030000
H        0.07650000       2.29090000      -0.16860000
H       -1.30250000       1.40930000      -0.86510000
H       -1.15550000       1.57950000       0.89310000
H       -0.47420000      -0.71080000       0.17580000
H        0.61620000      -0.81520000      -1.92290000
H        1.37420000       0.78640000      -1.73890000
H        3.73160000      -1.67270000      -1.81250000
H        3.71640000      -0.98790000       2.33640000
