20
Properties=species:S:1:pos:R:3 gdb_8073=T pbc="F F F"
C       -0.06320000       1.54190000       0.02500000
C        0.02580000       0.02630000       0.01420000
C        1.09860000      -0.65650000      -0.89230000
C        1.14620000      -1.78640000       0.18120000
C        0.72580000      -0.69330000       1.21050000
C       -0.03530000      -2.70500000      -0.04440000
C       -1.22870000      -2.14650000      -0.24620000
C       -1.34500000      -0.63940000      -0.24050000
H        0.91800000       1.99350000       0.20680000
H       -0.43640000       1.92500000      -0.93260000
H       -0.74500000       1.89450000       0.80850000
H        0.81710000      -0.93790000      -1.91060000
H        2.02290000      -0.07080000      -0.91030000
H        2.08420000      -2.32060000       0.33810000
H        1.58400000      -0.11410000       1.56500000
H        0.11310000      -1.00740000       2.05990000
H        0.10660000      -3.78130000      -0.03810000
H       -2.12470000      -2.73680000      -0.41550000
H       -2.06340000      -0.31580000       0.52770000
H       -1.75750000      -0.28560000      -1.19740000
