13
Properties=species:S:1:pos:R:3 gdb_5216=T pbc="F F F"
N        0.00480000       1.35200000       0.17130000
C        0.09280000      -0.00360000       0.22230000
N        1.06610000      -0.63430000      -0.32600000
C        1.16940000      -1.98630000      -0.21270000
C        2.08370000      -2.87120000      -0.69950000
N        1.74590000      -4.16020000      -0.30790000
C        0.66700000      -4.00890000       0.38430000
O        0.23820000      -2.72700000       0.49930000
H        0.63150000       1.83580000      -0.45330000
H       -0.87170000       1.79730000       0.37940000
H       -0.70500000      -0.48740000       0.79180000
H        2.95270000      -2.65960000      -1.30000000
H        0.07290000      -4.76350000       0.87590000
