12
Properties=species:S:1:pos:R:3 gdb_130051=T pbc="F F F"
N        0.05620000       1.31750000       0.13420000
C       -0.04370000      -0.03140000       0.03830000
N       -1.12070000      -0.73850000       0.01200000
N       -0.62340000      -2.04640000       0.00230000
C       -1.43710000      -3.18090000      -0.02230000
O       -2.63530000      -3.15200000      -0.02970000
C        0.76340000      -2.07680000       0.00120000
O        1.53220000      -2.98760000      -0.01780000
O        1.12620000      -0.72860000       0.02750000
H        0.89650000       1.72860000      -0.24200000
H       -0.79700000       1.82100000      -0.05620000
H       -0.81230000      -4.08860000      -0.03390000
