29
Properties=species:S:1:pos:R:3 gdb_101611=T pbc="F F F"
C        0.34260000       1.41130000       0.58880000
C        0.41760000      -0.10860000       0.41420000
C       -0.51580000      -0.69190000      -0.66660000
C       -0.20130000      -0.11550000      -2.05690000
C       -0.44190000      -2.24200000      -0.66710000
C       -1.77410000      -3.03000000      -0.78830000
C       -2.56700000      -2.62830000      -2.04540000
C       -1.42880000      -4.52860000      -0.87970000
C       -2.64750000      -2.80230000       0.46050000
H        0.96650000       1.73830000       1.42680000
H        0.68590000       1.94680000      -0.30150000
H       -0.68430000       1.73520000       0.79520000
H        1.45230000      -0.40200000       0.18630000
H        0.17430000      -0.58620000       1.37190000
H       -1.53750000      -0.38620000      -0.40240000
H        0.84230000      -0.31730000      -2.32870000
H       -0.83400000      -0.56180000      -2.82870000
H       -0.35180000       0.96740000      -2.09520000
H        0.22420000      -2.56250000      -1.47980000
H        0.04330000      -2.57710000       0.25900000
H       -1.97860000      -2.78900000      -2.95560000
H       -3.47990000      -3.22820000      -2.13160000
H       -2.86840000      -1.57660000      -2.01970000
H       -0.85860000      -4.85830000      -0.00400000
H       -2.33680000      -5.13950000      -0.93570000
H       -0.82690000      -4.74220000      -1.76990000
H       -2.93320000      -1.75190000       0.57650000
H       -3.57220000      -3.38690000       0.39940000
H       -2.12010000      -3.10810000       1.37100000
