16
Properties=species:S:1:pos:R:3 gdb_28050=T pbc="F F F"
C        0.03490000       1.51610000       0.01270000
C       -0.07030000       0.03360000       0.01880000
C       -1.11490000      -0.82580000      -0.12960000
C       -0.56520000      -2.14800000      -0.02480000
N       -1.30650000      -3.33090000      -0.12150000
C       -0.79180000      -4.59070000      -0.02290000
O        0.37730000      -4.85060000       0.16160000
C        0.77400000      -1.99840000       0.17980000
O        1.07860000      -0.66600000       0.20680000
H        0.70160000       1.86670000      -0.78320000
H       -0.95050000       1.95940000      -0.14590000
H        0.43270000       1.89300000       0.96160000
H       -2.14780000      -0.55850000      -0.29310000
H       -2.29840000      -3.24270000      -0.27600000
H       -1.57900000      -5.36090000      -0.13290000
H        1.58000000      -2.69320000       0.31470000
