21
Properties=species:S:1:pos:R:3 gdb_113314=T pbc="F F F"
C        0.27270000       1.37660000       0.28500000
C       -0.25340000       0.02440000      -0.20990000
C        0.56160000      -0.52220000      -1.36400000
C        1.84590000      -1.27760000      -1.12240000
C        0.61450000      -2.01030000      -1.64350000
O       -0.08870000      -2.81170000      -0.73850000
C        0.47830000      -4.09690000      -0.54560000
C        0.60170000      -2.46560000      -3.01240000
C        0.58810000      -2.85840000      -4.14960000
H        1.30740000       1.29420000       0.63430000
H        0.25210000       2.12840000      -0.51180000
H       -0.33380000       1.75400000       1.11410000
H       -0.25490000      -0.70400000       0.60580000
H       -1.29840000       0.12870000      -0.52730000
H        0.54660000       0.09270000      -2.26010000
H        2.68640000      -1.13580000      -1.79150000
H        2.10600000      -1.49020000      -0.09000000
H        0.49390000      -4.67300000      -1.47960000
H        1.50390000      -4.03010000      -0.15590000
H       -0.15160000      -4.61000000       0.18410000
H        0.57000000      -3.19800000      -5.15560000
