19
Properties=species:S:1:pos:R:3 gdb_99392=T pbc="F F F"
O        0.23920000       1.36660000       0.04900000
C        0.09690000      -0.01420000      -0.08920000
C       -1.36290000      -0.43840000       0.02220000
O       -2.21540000       0.41540000       0.14930000
C       -1.68040000      -1.92030000      -0.02520000
C       -3.17620000      -2.22130000      -0.13170000
C       -3.47640000      -3.72850000      -0.10440000
C       -4.96390000      -4.00550000      -0.12170000
O       -5.52320000      -4.72200000      -0.90990000
H       -0.66680000       1.70660000       0.12660000
H        0.47490000      -0.36530000      -1.06520000
H        0.67960000      -0.55350000       0.67550000
H       -1.12150000      -2.37280000      -0.85500000
H       -1.25800000      -2.37240000       0.88440000
H       -3.70000000      -1.71670000       0.68710000
H       -3.56820000      -1.78150000      -1.05520000
H       -3.01570000      -4.25450000      -0.94620000
H       -3.07490000      -4.16100000       0.82450000
H       -5.53480000      -3.47670000       0.67800000
