12
Properties=species:S:1:pos:R:3 gdb_8968=T pbc="F F F"
O       -0.08280000      -0.08350000       0.00190000
C       -0.02300000       1.11950000       0.00600000
C        1.26070000       1.91820000      -0.00160000
C        2.49480000       1.00260000      -0.01640000
C        3.73570000       1.77210000      -0.02350000
N        4.70840000       2.39490000      -0.02870000
C       -1.25500000       1.93410000       0.01940000
N       -2.20930000       2.58670000       0.02960000
H        1.24710000       2.58730000      -0.87120000
H        1.26220000       2.57940000       0.87410000
H        2.48330000       0.34230000       0.85630000
H        2.46850000       0.35040000      -0.89490000
