20
Properties=species:S:1:pos:R:3 gdb_86145=T pbc="F F F"
C       -0.03140000       1.55950000       0.05870000
C       -0.01430000       0.02970000      -0.00320000
C        0.84690000      -0.49810000      -1.18220000
N        2.17970000      -0.64020000      -0.60630000
C        3.37800000      -0.78440000      -1.39880000
C        2.16950000      -0.64550000       0.75100000
O        3.12420000      -0.66690000       1.50820000
C        0.70950000      -0.59910000       1.20450000
O        0.58010000       0.09360000       2.41640000
H        0.98460000       1.96830000       0.07070000
H       -0.55370000       1.97240000      -0.81000000
H       -0.53290000       1.90110000       0.96590000
H       -1.03840000      -0.34310000      -0.08870000
H        0.47760000      -1.46040000      -1.56580000
H        0.86920000       0.20580000      -2.02220000
H        3.50380000       0.06740000      -2.07780000
H        4.22650000      -0.82660000      -0.71340000
H        3.35270000      -1.70260000      -1.99890000
H        0.37530000      -1.64600000       1.31920000
H        1.45830000       0.05160000       2.82540000
