20
Properties=species:S:1:pos:R:3 gdb_33231=T pbc="F F F"
C        0.05220000       1.58190000       0.11740000
C       -0.04990000       0.06110000      -0.02700000
C        0.77860000      -0.48630000      -1.19300000
C        0.67890000      -2.01550000      -1.33720000
C        1.43980000      -2.54140000      -2.51040000
C        2.52300000      -3.35480000      -2.55630000
O        2.87030000      -3.54480000      -3.86810000
C        1.96040000      -2.82080000      -4.55440000
N        1.09230000      -2.20650000      -3.82240000
H        1.08800000       1.89460000       0.29070000
H       -0.29740000       2.08910000      -0.78860000
H       -0.54970000       1.94550000       0.95610000
H        0.27370000      -0.41850000       0.90680000
H       -1.10110000      -0.22480000      -0.16510000
H        0.45240000      -0.02370000      -2.13200000
H        1.83210000      -0.20630000      -1.06190000
H        1.04270000      -2.50160000      -0.42420000
H       -0.37690000      -2.29570000      -1.44430000
H        3.12880000      -3.85700000      -1.82220000
H        2.04600000      -2.82870000      -5.62990000
