16
Properties=species:S:1:pos:R:3 gdb_22298=T pbc="F F F"
O       -0.32680000       1.14140000      -0.89580000
N       -0.04010000      -0.12810000      -0.36510000
C       -0.99900000      -0.53700000       0.36870000
C       -2.29510000       0.21000000       0.59740000
O       -3.18310000      -0.54390000       1.40330000
C       -3.43900000      -1.82790000       0.87300000
C       -2.17040000      -2.68190000       0.78300000
O       -2.20020000      -3.86140000       0.54310000
C       -0.88760000      -1.88730000       1.02330000
H        0.45240000       1.32130000      -1.43240000
H       -2.11090000       1.15290000       1.12070000
H       -2.74820000       0.46270000      -0.37490000
H       -4.15720000      -2.31990000       1.53420000
H       -3.89170000      -1.77360000      -0.13200000
H       -0.01840000      -2.44190000       0.67000000
H       -0.80270000      -1.75430000       2.11250000
