21
Properties=species:S:1:pos:R:3 gdb_89846=T pbc="F F F"
C        0.02080000       1.54140000      -0.08380000
C        0.13390000       0.03460000       0.05610000
O        0.79350000      -0.48960000      -1.09140000
C        1.19350000      -1.79940000      -0.76230000
C        0.52530000      -2.94030000      -1.48870000
C        1.95970000      -2.54000000      -1.80290000
C        1.48470000      -1.83940000       0.73910000
C        0.97340000      -0.47930000       1.25220000
O        2.11120000       0.32590000       1.52730000
H        1.01500000       1.98740000      -0.16900000
H       -0.54750000       1.79750000      -0.98160000
H       -0.49790000       1.97450000       0.77870000
H       -0.87340000      -0.41160000       0.13990000
H        0.35350000      -3.87000000      -0.95500000
H       -0.22990000      -2.68470000      -2.22340000
H        2.13780000      -2.02380000      -2.73970000
H        2.76540000      -3.19250000      -1.48300000
H        0.97600000      -2.67410000       1.22750000
H        2.55280000      -1.91420000       0.95660000
H        0.34900000      -0.58160000       2.15100000
H        1.80530000       1.17480000       1.86210000
