18
Properties=species:S:1:pos:R:3 gdb_38572=T pbc="F F F"
C       -0.05120000       1.44550000       0.06890000
C        1.39950000       1.90300000       0.01450000
C        2.30350000       1.49020000       1.21200000
C        1.63260000       0.36830000       2.00670000
C        0.95210000      -0.57450000       1.02040000
C        1.32580000      -0.44270000      -0.41930000
C        2.20670000       0.77790000      -0.67840000
O        3.27000000       0.89530000       0.30320000
N       -0.02250000      -0.03330000       0.05510000
H       -0.59030000       1.80240000       0.95390000
H       -0.60700000       1.78280000      -0.81270000
H        1.57640000       2.91460000      -0.34950000
H        2.75340000       2.26540000       1.83780000
H        2.39200000      -0.17380000       2.57960000
H        0.90680000       0.77160000       2.72490000
H        0.67850000      -1.55400000       1.40430000
H        1.37190000      -1.30250000      -1.07890000
H        2.57390000       0.86890000      -1.70220000
