21
Properties=species:S:1:pos:R:3 gdb_99288=T pbc="F F F"
C        0.68340000       1.24280000      -1.06990000
C        0.94380000      -0.23350000      -0.78290000
C       -0.05570000      -1.16650000      -1.44670000
O       -1.06460000      -0.77300000      -1.98520000
C        0.23090000      -2.67210000      -1.33650000
O        1.58080000      -3.02770000      -1.58440000
C        1.85790000      -3.25530000      -2.93660000
C        2.23670000      -2.11860000      -3.85270000
C        3.27930000      -3.10720000      -3.36410000
H        0.77700000       1.45690000      -2.13850000
H       -0.32930000       1.52440000      -0.77210000
H        1.39520000       1.87390000      -0.53060000
H        1.95420000      -0.54290000      -1.07000000
H        0.89140000      -0.43940000       0.29710000
H        0.01600000      -2.97810000      -0.30380000
H       -0.46310000      -3.19970000      -2.00200000
H        1.27300000      -4.06900000      -3.36630000
H        1.91340000      -2.16410000      -4.88680000
H        2.27310000      -1.11860000      -3.43710000
H        3.97390000      -2.75590000      -2.60960000
H        3.69060000      -3.82990000      -4.05940000
