14
Properties=species:S:1:pos:R:3 gdb_25429=T pbc="F F F"
O       -0.05990000       0.00020000      -0.00010000
C        0.00210000       1.21240000       0.00840000
C        1.24720000       1.97400000       0.00010000
C        2.51850000       1.43270000      -0.01840000
N        3.41010000       2.45990000      -0.02060000
C        2.75410000       3.66580000      -0.00400000
C        1.39790000       3.40940000       0.00930000
C        0.36220000       4.37210000       0.02830000
C       -0.52710000       5.18440000       0.04450000
H       -0.91710000       1.83520000       0.02350000
H        2.82680000       0.40050000      -0.02970000
H        4.41060000       2.35420000      -0.03260000
H        3.28930000       4.60060000      -0.00290000
H       -1.31010000       5.90120000       0.05870000
