16
Properties=species:S:1:pos:R:3 gdb_16134=T pbc="F F F"
O       -0.17590000       0.01110000       0.16210000
C       -0.02030000       1.17820000      -0.10750000
C        1.27260000       1.88340000      -0.07590000
C        1.27030000       3.38270000       0.25130000
C        1.64610000       2.95800000      -1.12350000
C        3.12390000       2.74640000      -1.45570000
C        3.56270000       1.65730000      -0.49800000
C        2.54860000       1.17120000       0.21920000
H       -0.88310000       1.82280000      -0.40010000
H        0.30100000       3.85640000       0.37590000
H        2.03680000       3.71770000       0.94170000
H        0.95380000       3.18050000      -1.92730000
H        3.25430000       2.43340000      -2.49980000
H        3.70570000       3.66920000      -1.33540000
H        4.59490000       1.33510000      -0.42210000
H        2.59840000       0.36900000       0.94400000
