21
Properties=species:S:1:pos:R:3 gdb_107426=T pbc="F F F"
C        0.16700000       1.55310000       0.25840000
C       -0.03380000       0.08810000      -0.15400000
C       -1.46070000      -0.39760000      -0.03150000
N       -1.94660000      -1.51010000      -0.87610000
C       -2.51090000      -0.15780000      -1.06520000
C       -3.86270000       0.07830000      -0.39080000
C       -3.59340000      -0.03280000       1.11170000
N       -3.17560000      -1.37210000       1.56690000
C       -2.15100000      -0.33470000       1.32510000
H        1.21270000       1.85170000       0.13730000
H       -0.44860000       2.22050000      -0.35320000
H       -0.10350000       1.72080000       1.30560000
H        0.28740000      -0.03780000      -1.19600000
H        0.62210000      -0.55680000       0.44640000
H       -1.26060000      -1.68160000      -1.60970000
H       -2.28810000       0.36770000      -1.99040000
H       -4.21790000       1.08820000      -0.62560000
H       -4.62140000      -0.63550000      -0.72580000
H       -4.15880000       0.59540000       1.79390000
H       -3.33530000      -1.43930000       2.57030000
H       -1.59630000       0.05980000       2.16990000
