25
Properties=species:S:1:pos:R:3 gdb_121918=T pbc="F F F"
C        0.04040000       0.66800000       1.25420000
C       -0.18880000      -0.03020000      -0.07540000
O       -1.37430000      -0.79460000       0.01340000
C       -1.69050000      -1.48240000      -1.17490000
C       -3.01070000      -2.23600000      -0.98550000
O       -3.38980000      -2.84020000      -2.21900000
C       -3.00870000      -3.22790000       0.19710000
C       -4.43410000      -3.72370000       0.47320000
C       -2.05030000      -4.40970000      -0.01590000
H        0.95200000       1.27170000       1.21570000
H       -0.80150000       1.32430000       1.49230000
H        0.14230000      -0.06430000       2.06020000
H       -0.27480000       0.70740000      -0.89110000
H        0.66580000      -0.68290000      -0.32310000
H       -1.80450000      -0.78390000      -2.01910000
H       -0.88050000      -2.18440000      -1.44540000
H       -3.78770000      -1.48720000      -0.79260000
H       -2.72750000      -3.50430000      -2.43850000
H       -2.65600000      -2.65770000       1.06410000
H       -4.84310000      -4.22850000      -0.40780000
H       -4.45240000      -4.42810000       1.31100000
H       -5.10180000      -2.89150000       0.71980000
H       -2.35200000      -5.02430000      -0.87330000
H       -1.01660000      -4.08610000      -0.17270000
H       -2.05570000      -5.06690000       0.85910000
