17
Properties=species:S:1:pos:R:3 gdb_77733=T pbc="F F F"
O        0.19890000       1.22470000       0.36620000
C        0.04310000      -0.13640000       0.16400000
C       -1.35730000      -0.68380000      -0.00230000
C       -2.54260000       0.21950000      -0.25940000
C       -2.33970000       0.62930000      -1.75300000
O       -0.92350000       0.45060000      -2.04490000
C       -0.46050000      -0.55510000      -1.20600000
C       -0.64240000      -2.06430000      -1.34800000
O       -1.38470000      -2.12020000      -0.08970000
H        0.10450000       1.64680000      -0.49890000
H        0.77780000      -0.75040000       0.68170000
H       -3.48510000      -0.30990000      -0.10740000
H       -2.52090000       1.09440000       0.39510000
H       -2.92670000      -0.01440000      -2.42020000
H       -2.58680000       1.67200000      -1.96910000
H       -1.27400000      -2.34410000      -2.19960000
H        0.25330000      -2.69520000      -1.32520000
