21
Properties=species:S:1:pos:R:3 gdb_96708=T pbc="F F F"
C       -0.08240000       1.49910000       0.12840000
N       -0.04450000       0.04890000       0.06530000
C        0.53400000      -0.57470000      -0.88850000
N        0.64040000      -1.94830000      -0.88360000
C       -0.02690000      -2.78190000       0.11200000
C       -1.53650000      -2.89510000      -0.14860000
C        0.65700000      -4.14890000       0.15950000
C        1.20800000       0.02980000      -2.09860000
O        1.27050000       1.20670000      -2.34070000
H        0.91380000       1.95690000       0.10370000
H       -0.64810000       1.93900000      -0.70210000
H       -0.57100000       1.78590000       1.06420000
H        0.85470000      -2.39080000      -1.76460000
H        0.11460000      -2.26620000       1.06700000
H       -1.73090000      -3.39390000      -1.10540000
H       -2.02020000      -3.47870000       0.64130000
H       -1.99050000      -1.90210000      -0.16960000
H        1.72370000      -4.04930000       0.37900000
H        0.20170000      -4.77730000       0.93000000
H        0.55160000      -4.67590000      -0.79750000
H        1.66410000      -0.71970000      -2.79010000
