20
Properties=species:S:1:pos:R:3 gdb_5848=T pbc="F F F"
C       -0.11450000       1.52750000       0.10500000
C       -0.00220000       0.00430000       0.03980000
C        0.76770000      -0.53110000       1.25810000
O       -1.33530000      -0.50540000       0.04480000
C        0.69130000      -0.47750000      -1.25750000
O        0.56690000      -1.89650000      -1.26960000
C        0.05920000       0.08280000      -2.53270000
O        0.59650000      -0.68120000      -3.61560000
H        0.86840000       1.99940000       0.00910000
H       -0.76960000       1.91100000      -0.68110000
H       -0.54280000       1.82270000       1.06700000
H        0.21810000      -0.28890000       2.17180000
H        0.88110000      -1.61600000       1.19300000
H        1.76710000      -0.08750000       1.32390000
H       -1.24670000      -1.43640000      -0.20150000
H        1.75560000      -0.19380000      -1.23190000
H        0.66420000      -2.15170000      -2.19720000
H       -1.03010000      -0.03020000      -2.46700000
H        0.30120000       1.14660000      -2.65180000
H        0.02390000      -0.57450000      -4.37970000
