17
Properties=species:S:1:pos:R:3 gdb_44958=T pbc="F F F"
O       -0.01770000      -0.00340000       0.08040000
C       -0.04560000       1.19540000       0.01050000
C       -1.27040000       2.11300000      -0.06210000
C       -0.62600000       3.50640000       0.06720000
O        0.62950000       3.33980000      -0.58520000
C        1.16040000       2.15220000       0.01130000
C        1.55560000       2.49580000       1.45840000
C        0.31130000       3.02460000       2.19450000
O       -0.44660000       3.93470000       1.39430000
H       -1.74210000       2.01270000      -1.04450000
H       -2.01070000       1.87020000       0.70280000
H       -1.16530000       4.30730000      -0.43810000
H        1.99400000       1.78320000      -0.58750000
H        1.95820000       1.62120000       1.97920000
H        2.33070000       3.26700000       1.41620000
H       -0.32370000       2.18230000       2.50910000
H        0.58740000       3.57700000       3.09550000
