25
Properties=species:S:1:pos:R:3 gdb_89310=T pbc="F F F"
C       -0.11250000       1.53430000       0.01860000
C        0.06320000       0.01610000       0.03270000
C        1.01140000      -0.54450000      -1.07890000
C        2.00350000      -1.34790000      -0.21070000
C        3.10820000      -2.09950000      -0.91680000
C        2.28630000      -0.33260000       0.93720000
C        0.78220000      -0.57540000       1.27800000
C        0.20260000      -0.27650000       2.64210000
C        1.03360000      -2.03740000       0.79630000
H        0.84270000       2.05620000       0.14130000
H       -0.54510000       1.86400000      -0.93220000
H       -0.78180000       1.87040000       0.81780000
H       -0.93050000      -0.44210000      -0.05110000
H        0.48920000      -1.17610000      -1.80550000
H        1.51330000       0.25550000      -1.63560000
H        3.74370000      -1.41800000      -1.49490000
H        3.74970000      -2.63040000      -0.20520000
H        2.70000000      -2.84000000      -1.61500000
H        2.95190000      -0.74440000       1.70160000
H        2.61310000       0.67680000       0.66850000
H        0.21670000       0.79710000       2.86040000
H       -0.83890000      -0.61370000       2.71130000
H        0.76810000      -0.78130000       3.43260000
H        0.18430000      -2.60130000       0.39440000
H        1.56310000      -2.63780000       1.54210000
