21
Properties=species:S:1:pos:R:3 gdb_92955=T pbc="F F F"
C       -0.57340000       1.36010000      -0.15890000
C        0.14360000       0.01390000      -0.18900000
C        1.38140000      -0.05100000      -1.11830000
C        2.26290000      -1.07140000      -0.44160000
C        1.84620000      -1.34920000       0.79230000
C        0.62880000      -0.55130000       1.17210000
C        0.77450000       0.35640000       2.43180000
C       -0.28060000      -0.56720000       3.06050000
O       -0.41310000      -1.32260000       1.84090000
H        0.09720000       2.17180000       0.14480000
H       -0.96270000       1.61310000      -1.15050000
H       -1.42210000       1.34150000       0.53290000
H       -0.56760000      -0.74670000      -0.53490000
H        1.12270000      -0.32270000      -2.14840000
H        1.88790000       0.92370000      -1.17760000
H        3.14310000      -1.49260000      -0.91580000
H        2.31920000      -2.02920000       1.49230000
H        1.76200000       0.33970000       2.89590000
H        0.46230000       1.39200000       2.29390000
H        0.07440000      -1.18870000       3.89260000
H       -1.22640000      -0.09590000       3.35450000
