22
Properties=species:S:1:pos:R:3 gdb_120766=T pbc="F F F"
C       -0.03660000       1.35850000       0.26510000
O       -0.07310000      -0.04410000       0.34050000
C       -1.22830000      -0.59070000      -0.26940000
C       -1.15480000      -2.09080000      -0.17490000
C       -1.58840000      -2.78940000       1.09370000
C       -2.41010000      -2.92980000      -0.15870000
N       -3.68640000      -2.26800000      -0.19970000
C       -4.48410000      -2.46420000      -1.40700000
C       -4.86360000      -3.12810000      -0.12890000
H        0.88140000       1.69130000       0.75640000
H       -0.02900000       1.71510000      -0.77830000
H       -0.89850000       1.82100000       0.77350000
H       -2.14180000      -0.22390000       0.22070000
H       -1.27860000      -0.27490000      -1.32660000
H       -0.30590000      -2.52250000      -0.69730000
H       -1.01980000      -3.64290000       1.44490000
H       -2.00600000      -2.16510000       1.87590000
H       -2.35590000      -3.88920000      -0.68230000
H       -5.02880000      -1.59380000      -1.76170000
H       -4.07110000      -3.09500000      -2.19240000
H       -4.70300000      -4.20260000      -0.05980000
H       -5.69020000      -2.75150000       0.46680000
