19
Properties=species:S:1:pos:R:3 gdb_71724=T pbc="F F F"
C       -0.11550000       1.50450000       0.03670000
C        0.02170000       0.01490000       0.01350000
C        0.86420000      -0.83350000      -0.97660000
C        1.12370000      -2.13940000      -0.24360000
C        0.96530000      -1.95340000       1.24920000
C       -0.11800000      -0.88570000       1.22510000
O       -0.59790000      -0.30060000       2.39090000
C       -1.04120000      -1.08170000       0.02450000
C       -0.19860000      -1.91380000      -0.96460000
H        0.85080000       1.98800000       0.22650000
H       -0.49950000       1.89070000      -0.91430000
H       -0.80040000       1.80730000       0.83360000
H        1.46270000      -0.45820000      -1.79630000
H        1.83380000      -2.84380000      -0.65970000
H        0.63610000      -2.86820000       1.75780000
H        1.87850000      -1.59210000       1.73470000
H       -1.18330000      -0.93110000       2.82430000
H       -2.11830000      -0.98980000       0.07650000
H       -0.56380000      -2.53060000      -1.77460000
