20
Properties=species:S:1:pos:R:3 gdb_97996=T pbc="F F F"
C        0.76440000       1.26360000       0.15690000
C        0.68760000      -0.25940000      -0.05720000
C        0.71540000      -0.63760000      -1.46690000
C        0.73980000      -0.91240000      -2.64060000
C        0.76660000      -1.31390000      -4.05310000
N        1.07950000      -2.72550000      -4.30290000
C        2.39830000      -3.13780000      -3.84210000
C        2.74460000      -4.51470000      -4.38220000
O        3.45320000      -5.30770000      -3.81970000
H        1.68670000       1.66930000      -0.26750000
H       -0.07830000       1.76670000      -0.32480000
H        0.74250000       1.49930000       1.22490000
H        1.52150000      -0.74480000       0.46590000
H       -0.22690000      -0.64880000       0.40830000
H       -0.20470000      -1.10130000      -4.51560000
H        1.50290000      -0.70840000      -4.59750000
H        0.37210000      -3.29670000      -3.84990000
H        3.13850000      -2.44470000      -4.27150000
H        2.54770000      -3.12700000      -2.75240000
H        2.28690000      -4.72950000      -5.37440000
