20
Properties=species:S:1:pos:R:3 gdb_6600=T pbc="F F F"
C       -0.01630000       1.45170000       0.02150000
C       -0.00310000      -0.05350000       0.00710000
C        0.61940000      -0.98550000      -1.08240000
C        0.01580000      -1.94210000      -0.01500000
C        0.03210000      -3.44280000      -0.03500000
O       -0.63090000      -3.90640000       1.13410000
C        0.63320000      -1.00740000       1.06580000
C       -1.23340000      -1.01370000       0.00450000
H        1.00220000       1.85580000       0.01840000
H       -0.53790000       1.85060000      -0.85570000
H       -0.52450000       1.83180000       0.91470000
H        0.13810000      -0.97900000      -2.06580000
H        1.71060000      -0.97380000      -1.17170000
H       -0.46850000      -3.80290000      -0.94920000
H        1.07560000      -3.79780000      -0.07150000
H       -0.62350000      -4.86780000       1.12050000
H        1.72570000      -0.99820000       1.13840000
H        0.16550000      -1.03020000       2.05350000
H       -1.84280000      -1.03700000       0.91160000
H       -1.85460000      -1.01010000      -0.89720000
