22
Properties=species:S:1:pos:R:3 gdb_90034=T pbc="F F F"
C       -0.36220000       1.43260000       0.01430000
C        0.04960000      -0.02730000      -0.10130000
C        1.38950000      -0.34540000      -0.79790000
O        1.87390000      -1.04720000       0.36460000
C        0.69360000      -0.71900000       1.12010000
C        0.93750000      -0.05420000       2.49640000
N        0.65720000      -1.34880000       3.14590000
C       -0.12530000      -1.35760000       4.35880000
C        0.05280000      -1.87940000       1.90990000
H        0.45210000       2.04520000       0.41630000
H       -0.63170000       1.83820000      -0.96680000
H       -1.22990000       1.55390000       0.67140000
H       -0.77740000      -0.62170000      -0.50260000
H        1.34570000      -0.99320000      -1.68120000
H        2.00590000       0.53350000      -1.03110000
H        1.94250000       0.34460000       2.67080000
H        0.19040000       0.72530000       2.72350000
H       -1.10410000      -0.84820000       4.25090000
H       -0.31490000      -2.38950000       4.67330000
H        0.42720000      -0.85980000       5.16290000
H       -1.05020000      -1.82440000       1.89430000
H        0.36980000      -2.89020000       1.63170000
