23
Properties=species:S:1:pos:R:3 gdb_100980=T pbc="F F F"
C       -0.25320000       1.52350000       0.08390000
O       -0.15720000       0.14060000       0.36320000
C       -1.32110000      -0.63110000       0.02590000
C       -1.42060000      -0.80890000      -1.49290000
C       -1.26050000      -1.96530000       0.76960000
C       -2.46450000      -2.85840000       0.52400000
C        0.09410000      -2.64160000       0.95150000
C       -0.62510000      -2.05270000       2.14300000
O       -0.13760000      -0.95910000       2.85110000
H        0.64060000       1.99500000       0.49940000
H       -0.28530000       1.72930000      -0.99340000
H       -1.14290000       1.96830000       0.55320000
H       -2.20880000      -0.08060000       0.38230000
H       -0.56770000      -1.38600000      -1.86200000
H       -2.34020000      -1.33340000      -1.76360000
H       -1.43650000       0.15570000      -2.00720000
H       -2.49920000      -3.23450000      -0.50440000
H       -2.43490000      -3.72980000       1.18470000
H       -3.40420000      -2.32770000       0.72120000
H        0.15930000      -3.71960000       0.83870000
H        0.96240000      -2.09470000       0.59990000
H       -1.09040000      -2.75310000       2.83110000
H        0.12500000      -0.30880000       2.18410000
