16
Properties=species:S:1:pos:R:3 gdb_51052=T pbc="F F F"
O        0.01050000      -0.05390000       0.00290000
C        0.02170000       1.13520000       0.08270000
O        1.16310000       1.85130000      -0.08600000
C        1.07750000       3.26190000      -0.04970000
C        0.79670000       3.89970000       1.35360000
N        2.23810000       4.17050000       1.51520000
C        2.49580000       3.88010000       0.08850000
C        0.23110000       3.80810000      -1.18300000
O       -0.44500000       3.13400000      -1.91180000
H       -0.85670000       1.75730000       0.32360000
H        0.15070000       4.78640000       1.29280000
H        0.37830000       3.20950000       2.09340000
H        2.47150000       5.10850000       1.81700000
H        3.30300000       3.16510000      -0.09250000
H        2.63880000       4.75900000      -0.55420000
H        0.27770000       4.91570000      -1.28120000
