16
Properties=species:S:1:pos:R:3 gdb_114595=T pbc="F F F"
O        0.04340000       1.38360000      -0.26400000
C        0.09540000       0.03530000       0.15710000
C       -1.28960000      -0.58160000       0.10850000
O       -1.86180000      -0.53830000      -1.23650000
C       -2.17340000      -1.92340000      -1.18220000
C       -0.95240000      -2.76360000      -1.09230000
C       -1.48990000      -2.10460000       0.17760000
C       -1.88410000      -2.83470000       1.33170000
N       -2.20070000      -3.41940000       2.27950000
H       -0.33420000       1.38410000      -1.15160000
H        0.79880000      -0.55430000      -0.44890000
H        0.45950000       0.03370000       1.19000000
H       -1.96520000      -0.06020000       0.79450000
H       -3.14700000      -2.24650000      -1.53020000
H       -1.11790000      -3.83540000      -1.12230000
H       -0.02230000      -2.42140000      -1.53300000
