14
Properties=species:S:1:pos:R:3 gdb_25734=T pbc="F F F"
N       -0.05460000       1.34020000       0.11610000
C        0.01200000      -0.03110000       0.06640000
N        1.07820000      -0.76770000       0.07430000
C       -1.23020000      -0.76010000       0.05040000
C       -1.40470000      -2.12010000       0.04940000
O       -0.45990000      -3.04400000       0.06790000
N       -2.75050000      -2.41310000       0.02270000
C       -3.31950000      -1.24720000       0.00890000
O       -2.48600000      -0.18750000       0.02300000
H        0.77390000       1.85810000      -0.12860000
H       -0.92770000       1.77530000      -0.13660000
H        1.93940000      -0.22710000       0.09410000
H        0.38570000      -2.52400000       0.07970000
H       -4.37590000      -1.02970000      -0.01220000
