19
Properties=species:S:1:pos:R:3 gdb_98245=T pbc="F F F"
C        0.02140000       0.85250000       0.15610000
O        0.11920000      -0.55840000       0.35100000
C        0.71290000      -0.94080000       1.50500000
N        1.15280000      -0.10290000       2.33980000
N        0.73180000      -2.36570000       1.55220000
C        0.07830000      -3.08810000       0.45330000
C        1.39660000      -3.03300000       2.57690000
C        1.46120000      -4.55170000       2.50260000
O        1.92140000      -2.45450000       3.51170000
H        1.01360000       1.31050000       0.14180000
H       -0.47750000       0.97930000      -0.80580000
H       -0.55910000       1.31470000       0.95840000
H        1.56570000      -0.58300000       3.13510000
H        0.65450000      -3.01120000      -0.47370000
H       -0.03340000      -4.13630000       0.71430000
H       -0.91110000      -2.66950000       0.27250000
H        1.88790000      -4.90670000       1.56030000
H        2.09210000      -4.87560000       3.32940000
H        0.47230000      -5.00660000       2.61790000
