22
Properties=species:S:1:pos:R:3 gdb_108065=T pbc="F F F"
C       -0.31790000       1.45200000      -0.08310000
C        0.18800000       0.00730000       0.03480000
C        0.89290000      -0.48700000      -1.19890000
C        2.00700000       0.18990000      -1.98750000
N        1.71460000      -0.72700000      -3.15710000
C        2.13800000      -2.06300000      -2.58550000
C        0.98300000      -1.98860000      -1.59820000
C        0.37950000      -3.11020000      -0.80590000
C        0.33290000      -0.98030000      -2.51030000
H        0.50670000       2.15430000      -0.24150000
H       -1.01090000       1.55850000      -0.92410000
H       -0.84170000       1.75680000       0.82800000
H        0.86790000      -0.07080000       0.89460000
H       -0.65930000      -0.65000000       0.26370000
H        1.75970000       1.21830000      -2.26560000
H        3.04080000       0.14870000      -1.62210000
H        1.98850000      -2.84500000      -3.33690000
H        3.17300000      -2.09800000      -2.22270000
H        1.04160000      -3.42470000       0.00980000
H       -0.58050000      -2.83050000      -0.36140000
H        0.20180000      -3.98370000      -1.44360000
H       -0.62360000      -0.91080000      -3.01080000
