17
Properties=species:S:1:pos:R:3 gdb_126279=T pbc="F F F"
C        0.05760000       1.57370000       0.06740000
C       -0.03140000       0.04290000      -0.05600000
C       -1.44280000      -0.45770000      -0.12060000
C       -2.03020000      -1.05900000      -1.17100000
C       -3.41210000      -1.47630000      -1.08830000
N       -4.02830000      -2.05780000      -2.05490000
C       -4.00250000      -1.15040000       0.21920000
N       -3.42860000      -0.57620000       1.21230000
O       -2.09480000      -0.21430000       1.05140000
H        1.10290000       1.88880000       0.12600000
H       -0.39870000       2.06250000      -0.79860000
H       -0.45690000       1.92210000       0.96610000
H        0.49130000      -0.30050000      -0.95310000
H        0.46190000      -0.42220000       0.80600000
H       -1.47600000      -1.23500000      -2.08390000
H       -4.99400000      -2.26640000      -1.79080000
H       -5.04320000      -1.40850000       0.40950000
