16
Properties=species:S:1:pos:R:3 gdb_46857=T pbc="F F F"
N       -0.11280000       1.26300000      -0.31670000
C       -0.04020000       0.08120000       0.12940000
O        1.05000000      -0.36540000       0.81490000
C        1.27020000      -1.77790000       0.85670000
C        0.03150000      -2.53500000       1.25760000
C       -0.95240000      -1.94100000       2.18730000
N       -1.25810000      -2.06060000       0.73910000
C       -1.23060000      -0.85010000      -0.01160000
N       -2.21760000      -0.57520000      -0.75370000
H        0.75620000       1.76990000      -0.14060000
H        1.61830000      -2.12050000      -0.12730000
H        2.08090000      -1.92980000       1.57430000
H        0.14420000      -3.61720000       1.22150000
H       -1.56270000      -2.57540000       2.82160000
H       -0.74340000      -0.95170000       2.58450000
H       -2.04300000       0.33220000      -1.19640000
