14
Properties=species:S:1:pos:R:3 gdb_44114=T pbc="F F F"
O       -0.14180000       0.05070000      -0.28930000
C       -0.06560000       1.19580000       0.01270000
O       -1.23400000       1.99780000       0.19190000
C       -0.63070000       3.08000000       0.81550000
N       -0.59320000       3.17260000       2.07940000
C        0.80330000       3.53610000       2.40580000
C        1.57070000       3.26590000       1.10800000
C        1.16740000       2.09410000       0.08920000
C        0.60290000       3.48580000       0.01860000
H        0.93790000       4.57970000       2.72080000
H        1.09730000       2.89560000       3.24310000
H        2.61050000       3.56240000       1.01610000
H        1.99180000       1.75780000      -0.52950000
H        0.61340000       4.16000000      -0.82810000
