15
Properties=species:S:1:pos:R:3 gdb_16832=T pbc="F F F"
O       -0.15680000       1.45890000       0.30090000
C        0.00430000       0.07720000       0.01410000
C        0.71890000      -0.69030000       1.14500000
C       -0.42320000      -1.18080000       2.04270000
O       -0.38740000      -1.39400000       3.22170000
N       -1.57620000      -1.37140000       1.21780000
C       -2.38300000      -0.15480000       0.99180000
C       -1.38000000      -0.58870000      -0.01250000
H        0.71810000       1.85480000       0.37070000
H        0.50740000      -0.05870000      -0.95120000
H        1.23210000      -1.57040000       0.73890000
H        1.44670000      -0.10150000       1.70690000
H       -3.43930000      -0.33730000       0.81990000
H       -2.15050000       0.72310000       1.58510000
H       -1.70380000      -1.06190000      -0.93390000
