23
Properties=species:S:1:pos:R:3 gdb_59336=T pbc="F F F"
C       -0.20300000       1.49560000       0.10820000
C       -0.14120000      -0.02940000      -0.01200000
O       -1.42390000      -0.57720000      -0.28270000
C        0.85080000      -0.46830000      -1.08980000
C        0.99770000      -1.97260000      -1.37960000
C        0.54540000      -1.61520000      -2.81920000
C        1.64950000      -1.65850000      -3.86840000
C       -0.73800000      -2.27100000      -3.30480000
O        0.30040000      -0.22560000      -2.41130000
H        0.75640000       1.90670000       0.44030000
H       -0.44680000       1.94360000      -0.86130000
H       -0.97410000       1.78390000       0.82700000
H        0.17540000      -0.46370000       0.94500000
H       -1.60990000      -0.33030000      -1.19870000
H        1.80580000       0.05880000      -0.95870000
H        2.00250000      -2.38700000      -1.28340000
H        0.28440000      -2.59150000      -0.83300000
H        1.90540000      -2.69370000      -4.11890000
H        1.32560000      -1.15360000      -4.78410000
H        2.55250000      -1.15910000      -3.50540000
H       -1.50500000      -2.23840000      -2.52680000
H       -1.11710000      -1.75880000      -4.19550000
H       -0.55820000      -3.31950000      -3.56590000
