18
Properties=species:S:1:pos:R:3 gdb_35956=T pbc="F F F"
N        0.12840000      -1.22320000       0.31390000
C        0.04540000      -0.07710000       0.20320000
C       -0.04180000       1.38350000       0.02350000
O       -0.70840000       1.89720000       1.16150000
C       -1.32350000       3.16290000       0.96600000
C       -0.34390000       4.33530000       0.98790000
C        0.60940000       4.40890000      -0.21640000
C        1.59660000       3.27230000      -0.34240000
C        1.33890000       1.97000000      -0.23880000
H       -0.67200000       1.55150000      -0.86940000
H       -1.89710000       3.15880000       0.02360000
H       -2.03880000       3.26080000       1.78780000
H       -0.93380000       5.25980000       1.02550000
H        0.23640000       4.28490000       1.91570000
H        0.01300000       4.46930000      -1.14020000
H        1.16420000       5.35090000      -0.16570000
H        2.62480000       3.55710000      -0.55310000
H        2.14200000       1.25090000      -0.36460000
