19
Properties=species:S:1:pos:R:3 gdb_44049=T pbc="F F F"
O       -0.06270000       0.13560000      -0.68760000
C       -0.04610000       1.22520000      -0.19530000
C       -1.14290000       2.13760000       0.44370000
C       -0.03530000       3.19420000       0.69820000
C        0.74410000       3.19180000       2.04520000
C        1.83490000       2.25620000       1.40570000
C        1.04010000       2.28530000       0.06520000
C        1.33920000       3.36080000      -1.02260000
C        0.25120000       4.29000000      -0.36890000
H       -1.93860000       2.42540000      -0.25180000
H       -1.61530000       1.70490000       1.33210000
H        1.11200000       4.17250000       2.35870000
H        0.20170000       2.75270000       2.88700000
H        2.83500000       2.69230000       1.33690000
H        1.93040000       1.26850000       1.86320000
H        2.35990000       3.75100000      -0.99050000
H        1.13170000       3.04810000      -2.04890000
H       -0.59550000       4.52930000      -1.01810000
H        0.63790000       5.22880000       0.03660000
