21
Properties=species:S:1:pos:R:3 gdb_118320=T pbc="F F F"
C        0.03430000       1.63620000      -0.01460000
C        0.01990000       0.10600000      -0.05590000
C       -1.39840000      -0.47490000      -0.01480000
C       -1.42500000      -2.00540000      -0.05370000
C       -0.85730000      -2.61710000       1.22610000
O       -0.37620000      -3.71760000       1.30580000
C       -2.86120000      -2.56330000      -0.20380000
C       -2.96100000      -3.97770000      -0.72980000
O       -3.82100000      -1.89400000       0.09170000
H        1.05600000       2.02560000      -0.05270000
H       -0.51670000       2.05890000      -0.86180000
H       -0.43270000       2.01170000       0.90240000
H        0.52750000      -0.24320000      -0.96480000
H        0.60860000      -0.28700000       0.78440000
H       -1.92280000      -0.13630000       0.88690000
H       -1.98520000      -0.08810000      -0.85500000
H       -0.82520000      -2.40700000      -0.87910000
H       -0.95730000      -1.96380000       2.12190000
H       -2.22470000      -4.62220000      -0.24020000
H       -3.97230000      -4.36100000      -0.58940000
H       -2.72250000      -3.97770000      -1.80050000
