18
Properties=species:S:1:pos:R:3 gdb_38390=T pbc="F F F"
C       -0.00230000       1.49710000      -0.11690000
C        1.54200000       1.41220000       0.00320000
N        1.51820000      -0.08640000       0.18730000
C        0.00150000      -0.02540000      -0.01910000
C        0.89710000      -0.62620000      -1.02040000
C        1.06370000      -0.25970000      -2.52290000
C        1.06300000      -1.77410000      -2.80140000
O        2.16940000      -2.32860000      -2.08810000
C        0.94840000      -2.10060000      -1.36910000
H       -0.46480000       1.97990000       0.74560000
H       -0.42630000       1.92690000      -1.03000000
H        2.13050000       1.73670000      -0.86030000
H        1.94060000       1.88650000       0.90140000
H       -0.67810000      -0.62170000       0.58330000
H        0.20160000       0.27380000      -2.93220000
H        1.98850000       0.24600000      -2.81060000
H        0.70400000      -2.30570000      -3.67400000
H        0.50510000      -2.94450000      -0.85430000
