19
Properties=species:S:1:pos:R:3 gdb_8272=T pbc="F F F"
C        0.01920000       1.59180000       0.14580000
C        0.06760000       0.07640000       0.03520000
C        1.11220000      -0.57930000      -0.91380000
C        1.31480000      -1.69400000       0.14690000
C        2.73720000      -2.21920000       0.37260000
C        2.81680000      -3.16170000       1.48800000
N        2.85550000      -3.90340000       2.37360000
C        0.68190000      -0.74870000       1.20250000
H        1.00870000       2.00100000       0.38010000
H       -0.31760000       2.04940000      -0.79110000
H       -0.66850000       1.91030000       0.93710000
H       -0.93020000      -0.31100000      -0.19960000
H        0.79090000      -0.87720000      -1.91500000
H        2.00650000       0.04830000      -1.00680000
H        0.64870000      -2.53860000      -0.05360000
H        3.10800000      -2.71820000      -0.53100000
H        3.41870000      -1.38390000       0.57430000
H        1.45070000      -0.17200000       1.72990000
H        0.00800000      -1.18590000       1.94200000
