14
Properties=species:S:1:pos:R:3 gdb_48453=T pbc="F F F"
O       -0.56700000       0.65380000       0.70570000
C        0.16250000       0.94120000      -0.20500000
C        1.31970000       1.93150000      -0.08720000
C        1.42570000       2.63000000       1.30220000
N        2.60900000       1.80630000       1.57080000
C        2.64590000       1.15150000       0.38040000
O        3.35810000       0.32960000      -0.11360000
C        1.46450000       2.73610000      -1.27580000
C        1.56390000       3.38270000      -2.28440000
H        0.06760000       0.48480000      -1.21010000
H        1.63090000       3.70090000       1.24540000
H        0.57600000       2.41960000       1.95410000
H        3.20380000       1.72100000       2.38150000
H        1.66400000       3.95790000      -3.17180000
