13
Properties=species:S:1:pos:R:3 gdb_130930=T pbc="F F F"
O       -0.32370000       0.06510000       0.15150000
C       -0.04570000       1.22230000       0.00580000
C        1.37440000       1.71190000      -0.30470000
C        1.38580000       2.80700000      -1.32630000
N        1.97490000       2.59550000      -2.50310000
C        1.91230000       3.64390000      -3.31440000
N        1.31050000       4.80700000      -3.04460000
N        0.72380000       4.93360000      -1.86650000
N        0.76030000       3.95010000      -0.99020000
H       -0.79580000       2.03400000       0.10680000
H        1.76420000       2.11550000       0.63960000
H        1.99030000       0.87180000      -0.62470000
H        2.38370000       3.56370000      -4.29040000
