19
Properties=species:S:1:pos:R:3 gdb_72925=T pbc="F F F"
C       -0.13510000       1.43060000       0.02810000
C        0.05140000      -0.06640000       0.01030000
O       -1.18230000      -0.79730000       0.26140000
C       -0.61270000      -1.45400000       1.41750000
C        0.77140000      -0.83310000       1.15620000
C        1.79290000      -1.58260000       0.27600000
C        0.99380000      -2.12200000      -0.93350000
C        0.90920000      -0.60590000      -1.17110000
O        2.24900000      -0.47770000      -0.58350000
H        0.82520000       1.92790000      -0.13810000
H       -0.82910000       1.73530000      -0.76300000
H       -0.54470000       1.76690000       0.98490000
H       -1.09180000      -1.11350000       2.34330000
H       -0.69000000      -2.54640000       1.35820000
H        1.23710000      -0.26960000       1.96400000
H        2.60200000      -2.13550000       0.75260000
H        1.65510000      -2.60070000      -1.65560000
H        0.07600000      -2.69080000      -0.78690000
H        0.80540000      -0.14470000      -2.15350000
