16
Properties=species:S:1:pos:R:3 gdb_98010=T pbc="F F F"
C        0.08100000       1.48350000      -0.11180000
C       -0.12940000      -0.02780000      -0.14640000
C       -1.49160000      -0.45430000       0.36970000
O       -2.32780000       0.31940000       0.78250000
C       -1.74510000      -1.88840000       0.34250000
C       -1.95140000      -3.07850000       0.32260000
C       -2.15260000      -4.52360000       0.36720000
N       -3.11880000      -4.97270000      -0.48170000
O       -1.49380000      -5.24000000       1.09360000
H        1.07460000       1.73820000      -0.48980000
H       -0.66510000       1.99700000      -0.72330000
H       -0.01190000       1.86740000       0.90710000
H       -0.01940000      -0.43070000      -1.16260000
H        0.62660000      -0.55720000       0.44960000
H       -3.72150000      -4.33580000      -0.97390000
H       -3.35640000      -5.95130000      -0.45050000
