21
Properties=species:S:1:pos:R:3 gdb_68578=T pbc="F F F"
C       -0.00280000       1.47630000      -0.00270000
C        0.00290000      -0.02880000      -0.00360000
C        0.62060000      -0.97180000      -1.08350000
C        0.01170000      -1.91650000      -0.00750000
C        0.02520000      -3.43470000      -0.02190000
C       -0.63600000      -4.01840000       1.14060000
C       -1.18650000      -4.47140000       2.10850000
C        0.63320000      -0.97610000       1.06500000
C       -1.23280000      -0.98260000       0.00340000
H        1.01770000       1.87480000      -0.00960000
H       -0.52190000       1.86950000      -0.88390000
H       -0.50920000       1.86740000       0.88660000
H        0.13950000      -0.97300000      -2.06690000
H        1.71170000      -0.96750000      -1.17240000
H       -0.46090000      -3.79240000      -0.93960000
H        1.06440000      -3.78700000      -0.06930000
H       -1.67010000      -4.88380000       2.95880000
H        1.72550000      -0.97260000       1.13940000
H        0.16400000      -0.98610000       2.05260000
H       -1.84190000      -0.99310000       0.91140000
H       -1.85480000      -0.98490000      -0.89750000
