21
Properties=species:S:1:pos:R:3 gdb_74746=T pbc="F F F"
C        0.01940000       1.47820000       0.05580000
C       -0.04460000      -0.01130000      -0.01260000
C       -0.05630000      -0.81520000      -1.08460000
C       -0.01110000      -2.26430000      -0.58720000
C       -0.86290000      -2.09870000       0.69550000
C        0.00050000      -0.92940000       1.22410000
C        1.42860000      -1.53860000       1.20300000
C        1.63360000      -3.02920000       1.36450000
C        1.42110000      -2.43660000      -0.01030000
H        0.93660000       1.81720000       0.55590000
H       -0.00420000       1.92740000      -0.94150000
H       -0.81730000       1.89070000       0.63440000
H       -0.00790000      -0.51490000      -2.12450000
H       -0.32750000      -3.02830000      -1.29870000
H       -1.88080000      -1.77960000       0.46510000
H       -0.90670000      -2.97510000       1.34450000
H       -0.30130000      -0.46990000       2.16740000
H        2.26160000      -0.87460000       1.40800000
H        2.64880000      -3.34190000       1.59190000
H        0.88350000      -3.65510000       1.83330000
H        2.24710000      -2.43810000      -0.71330000
