15
Properties=species:S:1:pos:R:3 gdb_35293=T pbc="F F F"
C        0.05200000      -1.21830000       0.04250000
C        0.05280000      -0.01610000       0.02470000
C        0.02370000       1.40700000      -0.04810000
C       -0.73990000       2.22170000      -1.11360000
C        0.42610000       3.27720000      -1.10490000
C        0.09030000       4.64750000      -0.74400000
N       -0.19640000       5.72180000      -0.42610000
C        1.13730000       2.43760000      -0.01680000
N        0.29950000       2.21770000       1.13760000
H        0.05820000      -2.27990000       0.07440000
H       -0.81450000       1.71510000      -2.07630000
H       -1.72730000       2.57920000      -0.81190000
H        0.97090000       3.26950000      -2.05170000
H        2.20920000       2.31330000       0.07730000
H       -0.38650000       2.95330000       1.30300000
