15
Properties=species:S:1:pos:R:3 gdb_3536=T pbc="F F F"
C       -0.06850000       1.56710000       0.00980000
C        1.45070000       1.28490000      -0.00540000
C        1.24820000       0.10780000       1.02180000
C        2.23200000      -0.98770000       0.64300000
C        2.22000000      -0.98050000      -0.69220000
C        1.22970000       0.11900000      -1.04140000
C        0.05170000       0.02650000       0.00040000
H       -0.47570000       2.02400000       0.91670000
H       -0.49190000       2.03370000      -0.88470000
H        2.27340000       2.00590000      -0.00890000
H        1.04780000       0.33550000       2.06990000
H        2.79370000      -1.60910000       1.32650000
H        2.76930000      -1.59440000      -1.39230000
H        1.01050000       0.35790000      -2.08320000
H       -0.75220000      -0.71550000       0.00360000
