22
Properties=species:S:1:pos:R:3 gdb_110608=T pbc="F F F"
C        0.26930000       1.47160000       0.14180000
C       -0.19970000       0.03920000      -0.14130000
C        0.58500000      -0.60740000      -1.26770000
C        1.94080000      -1.25440000      -1.11600000
C        2.04260000      -2.08910000       0.14250000
N        2.16950000      -3.52040000      -0.15360000
C        0.83970000      -2.90820000      -0.26420000
C       -0.28320000      -3.49950000       0.53790000
C        0.71080000      -2.08830000      -1.53860000
H        1.32400000       1.48800000       0.43580000
H        0.16430000       2.10640000      -0.74520000
H       -0.31290000       1.92790000       0.94820000
H       -0.11470000      -0.55950000       0.77000000
H       -1.26460000       0.04820000      -0.40800000
H        0.51750000      -0.03880000      -2.19720000
H        2.78370000      -0.97260000      -1.73860000
H        2.33830000      -1.75500000       1.13070000
H        2.59830000      -3.67330000      -1.06470000
H        0.08680000      -3.86770000       1.49800000
H       -1.07570000      -2.76710000       0.72010000
H       -0.73100000      -4.34800000       0.00680000
H        0.50420000      -2.50160000      -2.52110000
