19
Properties=species:S:1:pos:R:3 gdb_80979=T pbc="F F F"
C       -0.00690000       1.48490000      -0.02320000
C       -0.04660000      -0.02230000       0.02640000
O        0.26310000      -0.65210000      -1.26840000
C       -0.58030000      -1.77140000      -0.88580000
C        0.22050000      -2.75600000      -0.02370000
C        0.98850000      -1.98200000       1.02420000
C        0.85090000      -0.65910000       1.07210000
C       -1.39920000      -0.78130000      -0.01860000
O       -1.96360000      -1.17640000       1.20270000
H        1.01660000       1.83840000      -0.18660000
H       -0.63700000       1.86220000      -0.83290000
H       -0.36270000       1.90090000       0.92540000
H       -1.05370000      -2.24360000      -1.75160000
H       -0.46390000      -3.46910000       0.45510000
H        0.90120000      -3.34370000      -0.65280000
H        1.62850000      -2.52540000       1.71310000
H        1.34800000      -0.03540000       1.80770000
H       -2.11050000      -0.23120000      -0.64590000
H       -2.89060000      -1.38460000       1.05640000
