14
Properties=species:S:1:pos:R:3 gdb_21945=T pbc="F F F"
O       -0.07960000       1.45900000      -0.07910000
C        0.05530000       0.05080000      -0.10890000
C       -1.34210000      -0.52770000       0.14170000
C       -1.35860000      -2.01550000       0.14360000
C       -1.67160000      -2.94970000       1.08380000
N       -1.49190000      -4.18330000       0.50640000
N       -1.10200000      -4.06880000      -0.68050000
O       -0.99830000      -2.65990000      -0.96810000
H        0.78140000       1.85000000      -0.25370000
H        0.42910000      -0.30580000      -1.07930000
H        0.74740000      -0.31000000       0.66780000
H       -1.71480000      -0.16320000       1.10280000
H       -2.01580000      -0.14910000      -0.63520000
H       -2.00500000      -2.83460000       2.10070000
