14
Properties=species:S:1:pos:R:3 gdb_130997=T pbc="F F F"
O       -0.16380000       0.19420000       0.55140000
C        0.07690000       1.11300000      -0.18390000
C        1.38430000       1.88160000      -0.14550000
O        1.31340000       2.88740000      -1.14880000
C        2.38890000       3.67920000      -1.26940000
N        3.48310000       3.57370000      -0.52140000
N        4.25270000       4.55450000      -1.00290000
N        3.74790000       5.27400000      -1.98960000
C        2.54540000       4.73630000      -2.18730000
H       -0.64040000       1.47420000      -0.95300000
H        1.53070000       2.32310000       0.84860000
H        2.22550000       1.20020000      -0.32620000
H        5.17000000       4.73240000      -0.62970000
H        1.87010000       5.10580000      -2.94010000
