21
Properties=species:S:1:pos:R:3 gdb_7345=T pbc="F F F"
C        0.01430000       1.57830000       0.05480000
C        0.02430000       0.04870000       0.00520000
C       -1.38670000      -0.54420000       0.01890000
C       -1.36920000      -2.07420000      -0.03110000
O       -0.31330000      -2.68610000      -0.07540000
N       -2.58040000      -2.72530000      -0.02390000
C       -2.60170000      -4.17740000      -0.07100000
C       -3.88070000      -2.08990000       0.02600000
H        1.03240000       1.97930000       0.04420000
H       -0.51840000       2.00430000      -0.80330000
H       -0.47750000       1.94730000       0.96240000
H        0.54800000      -0.29980000      -0.89030000
H        0.58850000      -0.35600000       0.85110000
H       -1.92170000      -0.21260000       0.91860000
H       -1.96250000      -0.15590000      -0.83170000
H       -3.10370000      -4.58610000       0.81550000
H       -3.14260000      -4.52800000      -0.95960000
H       -1.57410000      -4.53410000      -0.10530000
H       -4.47820000      -2.35630000      -0.85680000
H       -4.43930000      -2.41650000       0.91390000
H       -3.79430000      -1.00650000       0.06100000
