19
Properties=species:S:1:pos:R:3 gdb_17967=T pbc="F F F"
C       -0.00320000       1.47990000      -0.04830000
C        1.37290000       2.17450000       0.02890000
C        1.84340000       2.50170000       1.44840000
O        1.69810000       1.39610000       2.34630000
C        2.38130000       0.27140000       1.96880000
N        1.84350000      -0.77220000       1.51750000
C        0.39130000      -0.75080000       1.30680000
C       -0.01110000      -0.06240000      -0.01140000
H       -0.65370000       1.86800000       0.74630000
H       -0.47590000       1.77320000      -0.99300000
H        2.12490000       1.56000000      -0.48070000
H        1.34020000       3.12610000      -0.51580000
H        2.88790000       2.84880000       1.43810000
H        1.22920000       3.29320000       1.88720000
H        3.46500000       0.32660000       2.10710000
H        0.06300000      -1.79360000       1.26420000
H       -0.12820000      -0.27020000       2.14480000
H       -1.03020000      -0.39140000      -0.24940000
H        0.63010000      -0.44860000      -0.81420000
