19
Properties=species:S:1:pos:R:3 gdb_57779=T pbc="F F F"
C       -0.02330000       1.58720000       0.23200000
C       -0.01300000       0.06910000      -0.00400000
O        0.80360000      -0.60290000       0.95370000
C       -1.37400000      -0.47380000      -0.04020000
C       -2.49320000      -0.92430000      -0.01340000
C       -3.84480000      -1.41960000       0.00230000
O       -4.78820000      -0.59390000       0.63740000
C       -4.33490000      -2.26680000      -1.16310000
C       -4.10590000      -2.89230000       0.18900000
H        1.00550000       1.95500000       0.26460000
H       -0.56350000       2.10350000      -0.56700000
H       -0.51230000       1.82300000       1.18260000
H        0.47650000      -0.13170000      -0.96500000
H        0.32080000      -0.60720000       1.78780000
H       -4.80960000       0.24250000       0.15860000
H       -5.36120000      -2.09290000      -1.46570000
H       -3.63940000      -2.48640000      -1.96440000
H       -3.25230000      -3.54470000       0.32480000
H       -4.97810000      -3.13220000       0.78590000
