20
Properties=species:S:1:pos:R:3 gdb_117398=T pbc="F F F"
C       -0.14600000       1.47380000       0.13150000
C       -0.15770000      -0.04280000       0.11490000
O        0.60860000      -0.45830000      -1.02850000
C        0.71890000      -1.77050000      -1.22050000
N        0.18120000      -2.62730000      -0.44370000
N        1.47990000      -2.07660000      -2.35350000
C        2.12450000      -1.27600000      -3.28950000
N        2.15600000      -0.01440000      -3.30880000
C        2.89400000       0.60640000      -4.38690000
H        0.87600000       1.85430000       0.20950000
H       -0.59160000       1.87650000      -0.78210000
H       -0.71990000       1.83810000       0.98900000
H        0.28950000      -0.47060000       1.01770000
H       -1.17080000      -0.44850000       0.03090000
H        0.36670000      -3.58230000      -0.73910000
H        1.57450000      -3.06520000      -2.51470000
H        2.62500000      -1.90480000      -4.04330000
H        3.35620000      -0.11170000      -5.08620000
H        2.22890000       1.26330000      -4.95990000
H        3.68680000       1.24170000      -3.97430000
