16
Properties=species:S:1:pos:R:3 gdb_74080=T pbc="F F F"
N        0.06540000       1.32330000       0.06820000
C       -0.01760000      -0.02470000       0.02530000
C       -1.14250000      -0.79860000      -0.05700000
C       -0.76850000      -2.19660000       0.01730000
O       -1.44560000      -3.20380000       0.13650000
C        0.75500000      -2.27130000       0.01130000
O        1.29480000      -3.32220000       0.72550000
C        1.45970000      -1.69890000      -1.19260000
C        1.23260000      -0.85070000       0.06420000
H        0.95830000       1.77600000      -0.02080000
H       -0.75180000       1.89120000      -0.08040000
H       -2.16080000      -0.44510000      -0.14080000
H        0.56060000      -3.95260000       0.80470000
H        2.47340000      -2.05830000      -1.34130000
H        0.90840000      -1.45340000      -2.09450000
H        2.08170000      -0.53120000       0.65690000
