22
Properties=species:S:1:pos:R:3 gdb_5815=T pbc="F F F"
C       -0.31070000       1.49380000       0.84650000
C        0.11940000       0.08730000       0.44470000
C       -0.81790000      -0.96960000       1.01860000
C        0.50590000      -0.09640000      -1.04450000
C        1.94040000      -0.35510000      -0.51880000
C        2.47330000      -1.76900000      -0.72280000
C        2.98060000       0.69440000      -0.89500000
O        1.49460000      -0.16710000       0.85650000
H        0.37360000       2.24400000       0.44100000
H       -1.31970000       1.71200000       0.47890000
H       -0.31490000       1.59210000       1.93700000
H       -1.84110000      -0.82020000       0.65620000
H       -0.49530000      -1.97520000       0.73560000
H       -0.83020000      -0.91190000       2.11200000
H        0.03480000      -0.94500000      -1.54540000
H        0.39300000       0.79400000      -1.66690000
H        2.74620000      -1.93450000      -1.77100000
H        3.36440000      -1.93080000      -0.10740000
H        1.72550000      -2.51460000      -0.43940000
H        2.59450000       1.70450000      -0.73410000
H        3.88020000       0.57310000      -0.28260000
H        3.26740000       0.59770000      -1.94810000
