12
Properties=species:S:1:pos:R:3 gdb_43552=T pbc="F F F"
O       -0.01700000       0.07330000      -0.64550000
C        0.04110000       1.14810000      -0.15860000
O       -0.96980000       1.86220000       0.47440000
C       -0.13260000       3.04200000       0.67350000
C       -0.02940000       3.43330000       2.07220000
N        0.09220000       3.76240000       3.17270000
C        1.05190000       2.26090000       0.06860000
C        2.47200000       2.20790000       0.41550000
O        1.99770000       2.73950000      -0.83280000
H       -0.47930000       3.87440000       0.05660000
H        2.86710000       2.93990000       1.11630000
H        2.99630000       1.25810000       0.34690000
