17
Properties=species:S:1:pos:R:3 gdb_112474=T pbc="F F F"
O       -0.06920000       1.44480000      -0.01840000
C        0.04730000       0.02880000      -0.01970000
C       -1.37890000      -0.53170000       0.07930000
N       -2.18320000      -0.06760000      -1.05000000
C       -2.68690000      -0.80670000      -2.08550000
O       -3.22130000      -0.32520000      -3.06660000
N       -2.56250000      -2.18270000      -1.92090000
C       -1.96220000      -2.76050000      -0.81340000
C       -1.39960000      -2.03170000       0.15210000
H        0.77400000       1.82480000      -0.27930000
H        0.51620000      -0.34140000      -0.94260000
H        0.64040000      -0.32800000       0.83720000
H       -1.80670000      -0.10540000       1.00100000
H       -2.17390000       0.92590000      -1.22210000
H       -2.99350000      -2.73830000      -2.63920000
H       -1.98900000      -3.84370000      -0.78740000
H       -0.94270000      -2.51250000       1.00670000
