16
Properties=species:S:1:pos:R:3 gdb_69898=T pbc="F F F"
C       -0.04850000       1.58020000       0.21400000
C        0.05140000       0.09310000       0.08880000
N       -0.78930000      -0.86270000       0.83700000
C        0.69140000      -0.93010000       0.94740000
C        1.21860000      -1.67970000      -0.31860000
O        0.14730000      -2.03520000      -1.15460000
C        0.56670000      -0.67280000      -1.20220000
C        1.07270000      -0.10450000      -2.46790000
O        1.39880000      -0.75530000      -3.42930000
H        0.85220000       2.07600000      -0.16470000
H       -0.90570000       1.97030000      -0.34670000
H       -0.16980000       1.87030000       1.26300000
H       -1.11620000      -0.37170000       1.67050000
H        1.21100000      -0.82790000       1.89060000
H        2.16940000      -2.18330000      -0.44810000
H        1.15330000       1.00530000      -2.46170000
