17
Properties=species:S:1:pos:R:3 gdb_109527=T pbc="F F F"
C       -0.45710000       1.10970000       0.17950000
O        0.45550000       0.06260000      -0.11310000
C        0.91300000      -0.58570000       1.01010000
C        0.09560000      -1.71740000       1.62550000
C       -1.17620000      -2.08200000       1.08560000
C       -2.25860000      -2.39120000       0.66210000
C        1.39990000      -1.99870000       0.83270000
C        1.35740000      -2.64180000      -0.44420000
C        1.35440000      -3.20840000      -1.50380000
H        0.00850000       1.87770000       0.81490000
H       -0.73540000       1.55900000      -0.77570000
H       -1.35560000       0.72690000       0.67800000
H        1.46350000       0.04140000       1.71500000
H        0.19340000      -1.83990000       2.70060000
H       -3.20730000      -2.67040000       0.27620000
H        2.24310000      -2.28010000       1.45710000
H        1.34060000      -3.69760000      -2.44580000
