18
Properties=species:S:1:pos:R:3 gdb_87741=T pbc="F F F"
C        0.23050000       1.47910000      -0.35950000
C        0.07040000       0.01450000      -0.01940000
C        1.28540000      -0.90410000       0.09420000
C        0.49790000      -0.52680000       1.30310000
C        0.92390000       0.18520000       2.58270000
C        0.05140000      -0.89480000       3.27880000
O       -0.29730000      -1.49220000       2.01570000
C        0.75860000      -1.82180000       4.16680000
N        1.32260000      -2.53790000       4.87690000
H        1.12520000       1.90090000       0.11090000
H        0.33100000       1.62280000      -1.44050000
H       -0.63140000       2.06570000      -0.02290000
H       -0.81880000      -0.46300000      -0.42430000
H        1.18580000      -1.92360000      -0.26220000
H        2.27380000      -0.47080000      -0.02970000
H        1.98650000       0.14160000       2.82210000
H        0.55620000       1.20490000       2.70640000
H       -0.83300000      -0.51110000       3.79980000
