19
Properties=species:S:1:pos:R:3 gdb_41803=T pbc="F F F"
C        0.25040000       1.72860000       0.16380000
C        1.57510000       1.94510000      -0.59710000
C        2.16690000       0.51630000      -0.60090000
O        1.01630000      -0.30560000      -0.78160000
C       -0.01000000       0.20020000       0.04510000
O       -0.08530000      -0.50290000       1.26010000
C        0.91700000      -0.32490000       2.24350000
C        2.35800000      -0.13460000       1.84520000
C        2.90300000       0.21510000       0.68060000
H        0.32360000       2.02800000       1.21150000
H       -0.57470000       2.29180000      -0.27630000
H        1.38500000       2.26210000      -1.62660000
H        2.23140000       2.67960000      -0.12580000
H        2.82070000       0.34000000      -1.45940000
H       -0.95890000      -0.03540000      -0.44230000
H        0.65200000       0.52030000       2.90620000
H        0.84620000      -1.22060000       2.87260000
H        3.02470000      -0.26120000       2.69800000
H        3.98110000       0.35800000       0.64270000
