21
Properties=species:S:1:pos:R:3 gdb_73523=T pbc="F F F"
C       -0.09280000       1.59440000      -0.10050000
C       -0.03990000       0.04970000      -0.05270000
C       -1.45180000      -0.54090000       0.19930000
C       -1.52780000      -0.67830000       1.74780000
C       -0.07100000      -0.86840000       2.13550000
C        0.73430000      -0.48020000       1.15200000
C        2.17200000      -0.71480000       0.77280000
C        2.02800000      -0.86470000      -0.73810000
C        0.82620000      -0.48220000      -1.17980000
H        0.91170000       2.02740000      -0.07110000
H       -0.57700000       1.93610000      -1.02240000
H       -0.66120000       1.99330000       0.74650000
H       -2.25720000       0.07240000      -0.21680000
H       -1.52180000      -1.53660000      -0.25090000
H       -1.96850000       0.21340000       2.21640000
H       -2.15190000      -1.52390000       2.05760000
H        0.23620000      -1.31870000       3.07340000
H        2.83420000       0.12970000       1.01720000
H        2.60320000      -1.59700000       1.25930000
H        2.83950000      -1.22370000      -1.36200000
H        0.51950000      -0.47230000      -2.22090000
