16
Properties=species:S:1:pos:R:3 gdb_97350=T pbc="F F F"
C       -0.12710000       1.32180000       0.26730000
N        0.03470000      -0.11300000       0.13040000
C        0.56870000      -0.52900000      -0.92410000
O        0.73440000      -1.88320000      -1.08060000
C        1.32640000      -2.31310000      -2.25410000
O        1.70380000      -1.60440000      -3.14020000
N        1.38110000      -3.68850000      -2.17550000
C        1.89230000      -4.58290000      -3.11420000
N        2.39960000      -4.23920000      -4.22050000
H        0.39530000       1.65880000       1.16910000
H        0.24660000       1.90010000      -0.59140000
H       -1.18850000       1.55280000       0.40840000
H        0.93600000       0.05500000      -1.77080000
H        1.00110000      -4.07860000      -1.32750000
H        1.78570000      -5.61060000      -2.74640000
H        2.70160000      -5.06620000      -4.73270000
