17
Properties=species:S:1:pos:R:3 gdb_50835=T pbc="F F F"
O        0.90530000      -0.16240000      -0.75660000
C        0.44930000       0.93270000      -0.56560000
C        1.24130000       2.08630000       0.03840000
C        1.06340000       3.35320000      -0.80200000
O       -0.04180000       3.79060000      -1.02450000
C        2.32740000       3.96690000      -1.36170000
C        2.96990000       3.18120000      -2.54500000
O        2.70540000       4.26230000      -3.45030000
C        2.15030000       5.08670000      -2.40050000
H       -0.59720000       1.19460000      -0.82450000
H        0.80470000       2.29690000       1.02350000
H        2.28370000       1.78720000       0.16430000
H        3.02250000       4.17370000      -0.54350000
H        4.04210000       2.97880000      -2.43450000
H        2.46220000       2.25420000      -2.84060000
H        1.10920000       5.36180000      -2.59350000
H        2.75060000       5.98700000      -2.22710000
