13
Properties=species:S:1:pos:R:3 gdb_132091=T pbc="F F F"
C        0.07040000       1.50470000       0.01920000
C       -0.04420000       0.02100000       0.00950000
C       -1.18440000      -0.69620000      -0.14330000
F       -2.37110000      -0.10160000      -0.30750000
C       -1.10150000      -2.11070000      -0.12650000
N        0.00760000      -2.77060000       0.02740000
C        1.18770000      -2.07190000       0.18570000
O        2.27590000      -2.53490000       0.33600000
O        1.10860000      -0.63860000       0.16930000
H        0.74160000       1.83380000      -0.78080000
H       -0.90870000       1.96430000      -0.11620000
H        0.50330000       1.84080000       0.96710000
H       -2.02080000      -2.68410000      -0.24970000
