14
Properties=species:S:1:pos:R:3 gdb_32050=T pbc="F F F"
C       -0.04170000       1.36030000       0.06130000
O        0.03750000      -0.07210000      -0.05910000
C        0.64260000      -0.54390000      -1.12350000
N        1.15790000       0.20830000      -2.04480000
C        1.74020000      -0.50740000      -3.06380000
N        1.81700000      -1.79200000      -3.18160000
C        1.25630000      -2.56030000      -2.17880000
N        1.21050000      -3.81510000      -2.08070000
O        0.64110000      -1.86760000      -1.10120000
H        0.95950000       1.79360000       0.09350000
H       -0.59090000       1.78150000      -0.78270000
H       -0.57160000       1.53480000       0.99660000
H        2.18140000       0.09760000      -3.85320000
H        1.67340000      -4.21680000      -2.89430000
