19
Properties=species:S:1:pos:R:3 gdb_33214=T pbc="F F F"
O       -0.02990000       1.42810000      -0.30760000
C        0.03160000       0.04510000       0.00160000
C       -1.38330000      -0.51350000      -0.07260000
C       -1.43660000      -2.02800000       0.19970000
C       -2.81490000      -2.60300000       0.16420000
C       -3.60020000      -3.18880000       1.12480000
N       -4.82230000      -3.56540000       0.61350000
C       -4.78670000      -3.21290000      -0.64890000
N       -3.59740000      -2.62740000      -0.97590000
H        0.85680000       1.79340000      -0.23660000
H        0.68260000      -0.49440000      -0.70700000
H        0.44340000      -0.12260000       1.01040000
H       -2.01590000       0.01550000       0.64810000
H       -1.78870000      -0.28850000      -1.06680000
H       -0.78870000      -2.54760000      -0.52130000
H       -1.01560000      -2.23760000       1.18940000
H       -3.34660000      -3.36150000       2.16040000
H       -5.57730000      -3.35170000      -1.37150000
H       -3.33700000      -2.27070000      -1.88010000
