19
Properties=species:S:1:pos:R:3 gdb_102137=T pbc="F F F"
C        0.21000000       1.39020000      -0.14460000
O       -0.10660000       0.03240000       0.07650000
C        0.62060000      -0.56080000       1.13680000
C       -0.03720000      -1.93210000       1.41050000
C       -1.39940000      -1.81650000       1.91300000
C       -2.51470000      -1.71820000       2.34920000
C        2.04760000      -0.71480000       0.82370000
C        3.21440000      -0.85280000       0.55800000
C        4.62530000      -1.01700000       0.23940000
H        1.26420000       1.52250000      -0.42440000
H       -0.42480000       1.73410000      -0.96410000
H        0.00440000       2.00240000       0.74720000
H        0.51890000       0.05860000       2.04370000
H       -0.02010000      -2.50080000       0.47420000
H        0.58560000      -2.47670000       2.12840000
H       -3.50440000      -1.63560000       2.72400000
H        5.06860000      -1.83140000       0.82270000
H        4.76690000      -1.25390000      -0.82060000
H        5.19280000      -0.10560000       0.45670000
