19
Properties=species:S:1:pos:R:3 gdb_106403=T pbc="F F F"
C       -0.15970000       1.63240000      -0.17220000
C        0.05790000       0.14060000      -0.02630000
O       -1.14590000      -0.49200000      -0.33950000
C        1.34980000      -0.57860000      -0.54940000
C        2.18230000       0.00950000       0.60340000
C        0.84310000      -0.48690000       1.19000000
C        0.43850000      -0.74410000       2.61060000
O        1.35110000      -1.60750000       3.26330000
O        0.99700000      -1.72430000       0.34040000
H       -0.46510000       1.85390000      -1.19910000
H       -0.97320000       1.94830000       0.48740000
H        0.72680000       2.22210000       0.06150000
H       -0.95450000      -1.43830000      -0.25560000
H        1.64620000      -0.82740000      -1.56910000
H        3.04020000      -0.59850000       0.88690000
H        2.40280000       1.07680000       0.61560000
H        0.42890000       0.19800000       3.16920000
H       -0.58670000      -1.14750000       2.61790000
H        1.49010000      -2.35670000       2.67200000
