14
Properties=species:S:1:pos:R:3 gdb_125718=T pbc="F F F"
C       -0.35240000       1.45840000       0.01510000
C        0.00380000       0.00540000      -0.00550000
N        0.16120000      -0.56400000      -1.14200000
O        0.49540000      -1.92670000      -1.16450000
C        0.66340000      -2.68500000      -0.03060000
N        0.96380000      -3.90880000      -0.06410000
N        0.48140000      -2.01920000       1.16900000
C        0.15450000      -0.69370000       1.30460000
O        0.00360000      -0.14670000       2.37440000
H        0.40540000       2.02260000       0.56720000
H       -0.43100000       1.84030000      -1.00300000
H       -1.30010000       1.60480000       0.54230000
H        1.05930000      -4.23710000      -1.02240000
H        0.60360000      -2.57200000       2.00750000
