19
Properties=species:S:1:pos:R:3 gdb_65499=T pbc="F F F"
C       -0.52650000       1.64180000      -0.06240000
C        0.10510000       0.26310000       0.03910000
C        1.37320000      -0.02300000      -0.85400000
C        2.05860000      -0.61030000       0.37720000
C        2.81570000      -1.85740000       0.50180000
O        3.44800000      -0.57350000       0.62220000
C        0.99230000      -0.03810000       1.30780000
C       -0.90690000      -0.84260000      -0.14690000
O       -2.08240000      -0.68090000      -0.35260000
H        0.22710000       2.42290000       0.07520000
H       -0.99920000       1.78340000      -1.03870000
H       -1.30360000       1.77160000       0.69640000
H        1.24330000      -0.67250000      -1.72400000
H        1.84060000       0.91170000      -1.17600000
H        2.75920000      -2.43660000       1.42270000
H        3.07870000      -2.42380000      -0.39080000
H        1.31920000       0.89090000       1.78280000
H        0.57440000      -0.69910000       2.07210000
H       -0.47590000      -1.87020000      -0.07840000
