18
Properties=species:S:1:pos:R:3 gdb_117300=T pbc="F F F"
C       -0.14450000       1.54530000      -0.06720000
C        0.02540000       0.04990000       0.18890000
N       -1.26070000      -0.63010000       0.27000000
C       -1.40120000      -1.92090000      -0.19170000
O       -0.53420000      -2.54040000      -0.75970000
N       -2.70890000      -2.40720000       0.01290000
C       -3.07380000      -3.76110000       0.02780000
N       -4.45520000      -3.91510000      -0.04910000
O       -2.30650000      -4.67960000       0.16450000
H        0.83290000       2.03380000      -0.12330000
H       -0.67550000       1.72320000      -1.00680000
H       -0.70880000       2.02950000       0.73830000
H        0.57330000      -0.43230000      -0.62280000
H        0.60920000      -0.11400000       1.10580000
H       -1.88920000      -0.32310000       0.99660000
H       -3.43440000      -1.73460000       0.20470000
H       -4.96020000      -3.28480000      -0.65490000
H       -4.72160000      -4.88290000      -0.15770000
