21
Properties=species:S:1:pos:R:3 gdb_38377=T pbc="F F F"
C        0.00600000       1.48330000      -0.32250000
C        1.51720000       1.54420000      -0.01630000
C        1.94240000       2.34620000       1.21450000
C        1.59430000       1.68290000       2.55380000
O        0.24070000       1.26580000       2.66050000
C        0.00030000      -0.12940000       2.54710000
C       -0.60820000      -0.55370000       1.20370000
C        0.13740000      -0.02450000      -0.02210000
O        1.57110000       0.10490000       0.18350000
H       -0.62900000       2.03930000       0.36610000
H       -0.26260000       1.72340000      -1.35280000
H        2.13300000       1.83040000      -0.87780000
H        3.02750000       2.51180000       1.20820000
H        1.47540000       3.33710000       1.14590000
H        2.26100000       0.82720000       2.71400000
H        1.77930000       2.40130000       3.36260000
H        0.93340000      -0.68210000       2.70840000
H       -0.69170000      -0.40800000       3.35220000
H       -0.63400000      -1.65110000       1.19270000
H       -1.65040000      -0.21670000       1.13270000
H       -0.06470000      -0.66810000      -0.88710000
