25
Properties=species:S:1:pos:R:3 gdb_100766=T pbc="F F F"
C        0.20670000       1.26630000      -0.49340000
O        0.07270000      -0.09700000      -0.16650000
C       -1.26600000      -0.55990000       0.02270000
C       -2.02150000      -0.69490000      -1.30070000
C       -1.11100000      -1.91990000       0.73150000
O       -0.29600000      -2.76270000      -0.07680000
C       -0.56390000      -1.82210000       2.17440000
C       -1.49500000      -1.02630000       3.10130000
C       -0.31840000      -3.22570000       2.74530000
H        1.27590000       1.49290000      -0.49650000
H       -0.20230000       1.50580000      -1.48490000
H       -0.28890000       1.90960000       0.24980000
H       -1.80000000       0.14510000       0.67610000
H       -1.54020000      -1.44740000      -1.92970000
H       -3.05300000      -1.00960000      -1.11220000
H       -2.06090000       0.25340000      -1.84370000
H       -2.09670000      -2.40340000       0.76590000
H        0.47490000      -2.22890000      -0.30870000
H        0.39830000      -1.29680000       2.11430000
H       -2.50260000      -1.46050000       3.11450000
H       -1.11810000      -1.04790000       4.12890000
H       -1.58640000       0.02430000       2.81160000
H        0.31900000      -3.81230000       2.08170000
H        0.15620000      -3.16650000       3.73020000
H       -1.26470000      -3.76820000       2.86590000
