19
Properties=species:S:1:pos:R:3 gdb_102703=T pbc="F F F"
C        0.05040000       0.66070000       0.55750000
O       -0.20740000      -0.48440000      -0.23390000
C        0.67090000      -0.69620000      -1.31920000
C        2.16750000      -0.65890000      -0.94230000
O        2.49010000      -1.38720000       0.21850000
C        0.24530000      -2.03600000      -1.91350000
O        0.54580000      -3.11300000      -1.01290000
C       -0.40860000      -3.45810000      -0.11230000
O       -0.18770000      -4.22200000       0.77600000
H        0.97920000       0.55490000       1.12850000
H        0.09870000       1.57320000      -0.05590000
H       -0.78690000       0.75240000       1.25290000
H        0.51420000       0.07100000      -2.10120000
H        2.74270000      -0.99000000      -1.82390000
H        2.46700000       0.37530000      -0.74540000
H        2.17640000      -2.29130000       0.09690000
H       -0.82820000      -2.01940000      -2.13330000
H        0.79370000      -2.24650000      -2.83430000
H       -1.38050000      -2.97740000      -0.31490000
