16
Properties=species:S:1:pos:R:3 gdb_30225=T pbc="F F F"
N        0.04590000       1.56020000       0.16180000
C        0.04150000       0.13120000      -0.07280000
C       -1.37320000      -0.57290000       0.07540000
N       -1.21340000      -1.02220000      -1.32360000
C        0.02380000      -0.47270000      -1.48490000
N        0.63290000      -0.84520000      -2.57920000
C       -0.29110000      -1.70540000      -3.16880000
C       -1.42230000      -1.85640000      -2.38250000
O       -2.56910000      -2.56610000      -2.49870000
H        0.99630000       1.91490000       0.12530000
H       -0.46610000       2.03700000      -0.57550000
H        0.79060000      -0.32490000       0.58100000
H       -1.41610000      -1.39030000       0.79900000
H       -2.21080000       0.11190000       0.22540000
H       -0.10440000      -2.15640000      -4.13250000
H       -2.53510000      -3.06430000      -3.32160000
