21
Properties=species:S:1:pos:R:3 gdb_120939=T pbc="F F F"
C        0.00040000       1.39800000      -0.06000000
O        0.12230000      -0.00270000      -0.06330000
C        0.56220000      -0.52160000       1.17470000
C        0.67280000      -2.02870000       1.05130000
C        1.80150000      -2.65410000       0.16180000
C        2.25280000      -3.50540000       1.35580000
C        2.67520000      -2.59750000       2.48900000
C        1.20970000      -2.83760000       2.24130000
O        0.39330000      -3.44140000       3.18400000
H        0.96180000       1.89340000       0.15200000
H       -0.34030000       1.70120000      -1.05320000
H       -0.73210000       1.74420000       0.68720000
H        1.53440000      -0.07640000       1.44860000
H       -0.15030000      -0.25650000       1.97700000
H       -0.29940000      -2.43070000       0.75210000
H        1.40660000      -3.23120000      -0.67580000
H        2.54650000      -1.94800000      -0.21930000
H        2.55190000      -4.54530000       1.32260000
H        3.05380000      -3.11810000       3.36330000
H        3.15630000      -1.64250000       2.28840000
H        0.35170000      -2.87380000       3.96100000
