23
Properties=species:S:1:pos:R:3 gdb_75047=T pbc="F F F"
C        0.07930000       1.62390000       0.06900000
C        0.01060000       0.11840000      -0.05710000
C       -0.00620000      -0.42890000      -1.28630000
C       -0.13600000      -1.81460000      -1.74510000
C       -0.95560000      -2.75990000      -1.26780000
C       -1.85250000      -2.58440000      -0.07720000
C       -1.12300000      -2.88010000       1.24930000
C        0.17980000      -2.08660000       1.42160000
C        0.03690000      -0.56050000       1.30160000
H        0.98730000       1.93880000       0.60010000
H        0.06350000       2.11830000      -0.90500000
H       -0.76640000       2.00610000       0.65620000
H        0.09700000       0.27860000      -2.11060000
H        0.44710000      -2.05090000      -2.63470000
H       -0.95460000      -3.73510000      -1.75020000
H       -2.21970000      -1.55130000      -0.05530000
H       -2.72960000      -3.23590000      -0.16080000
H       -1.80160000      -2.65900000       2.08320000
H       -0.89520000      -3.95160000       1.31290000
H        0.57890000      -2.30660000       2.41900000
H        0.93070000      -2.44040000       0.70910000
H        0.87800000      -0.10230000       1.84240000
H       -0.85040000      -0.23060000       1.86540000
