16
Properties=species:S:1:pos:R:3 gdb_11657=T pbc="F F F"
O        0.16350000       1.37920000      -0.20610000
C        0.02980000       0.00650000      -0.04190000
C       -0.00850000      -0.66940000       1.36280000
C       -1.46770000      -0.14220000       1.52820000
C       -1.39880000      -0.67890000       0.07120000
C       -0.61550000      -1.90460000       0.63720000
C       -2.46970000      -0.67270000      -0.95700000
O       -3.52750000      -0.10430000      -0.83170000
H       -0.39000000       1.84050000       0.43300000
H        0.70280000      -0.45430000      -0.76920000
H        0.78090000      -0.67370000       2.11470000
H       -2.11240000      -0.69960000       2.21100000
H       -1.62040000       0.93110000       1.67020000
H        0.03520000      -2.44470000      -0.05570000
H       -1.20160000      -2.58490000       1.25750000
H       -2.21990000      -1.22700000      -1.89150000
