19
Properties=species:S:1:pos:R:3 gdb_94445=T pbc="F F F"
O        0.40070000       0.82490000      -0.67050000
C        0.16590000      -0.27220000       0.16090000
C       -0.03180000      -0.05110000       1.69340000
C       -1.24710000      -1.02030000       1.64080000
C       -1.27290000      -0.86730000       0.11200000
O       -2.21710000       0.11600000      -0.39780000
C       -2.45070000      -0.68270000      -1.58500000
C       -1.72390000      -1.88500000      -0.94050000
O       -0.66200000      -2.49520000      -1.62550000
H       -0.44830000       1.28730000      -0.72620000
H        0.92150000      -1.03230000      -0.05400000
H        0.80090000      -0.31170000       2.34970000
H       -0.33770000       0.97810000       1.89860000
H       -0.99340000      -2.04330000       1.93430000
H       -2.16150000      -0.71730000       2.15480000
H       -3.51930000      -0.77690000      -1.80320000
H       -1.91440000      -0.28910000      -2.45650000
H       -2.42420000      -2.62420000      -0.52880000
H       -1.01470000      -3.17780000      -2.20410000
