21
Properties=species:S:1:pos:R:3 gdb_120963=T pbc="F F F"
C        0.70760000       1.27520000       0.02870000
C        0.22230000      -0.16200000      -0.04340000
O        0.81100000      -0.77710000      -1.18380000
C        0.41330000      -2.11010000      -1.38140000
C        1.07060000      -2.61940000      -2.68050000
C        2.27080000      -3.41660000      -2.19610000
C        3.19830000      -2.73690000      -1.20110000
C        2.05510000      -3.59120000      -0.72230000
O        0.85420000      -2.96180000      -0.33430000
H        1.79600000       1.30980000       0.13270000
H        0.43340000       1.82280000      -0.87770000
H        0.26250000       1.78280000       0.88980000
H        0.49520000      -0.71690000       0.86290000
H       -0.87610000      -0.19820000      -0.13330000
H       -0.68490000      -2.16520000      -1.37780000
H        0.37950000      -3.27420000      -3.21990000
H        1.31870000      -1.77260000      -3.32410000
H        2.65210000      -4.21650000      -2.81920000
H        4.19800000      -3.14730000      -1.10200000
H        3.11960000      -1.66400000      -1.07410000
H        2.22030000      -4.51370000      -0.17890000
