22
Properties=species:S:1:pos:R:3 gdb_83278=T pbc="F F F"
C       -0.30680000       1.51470000       0.07090000
C       -0.05160000       0.02630000      -0.01450000
C        0.58620000      -0.62450000      -1.19210000
C        1.13990000       0.16450000      -2.36880000
O        2.04090000       1.18820000      -1.98650000
C        3.06610000       0.69000000      -1.13080000
C        4.12950000       1.76890000      -1.00280000
C        2.46350000       0.28980000       0.21940000
N        1.28570000      -0.58340000       0.10250000
H        0.38180000       2.09140000      -0.54720000
H       -1.32830000       1.72810000      -0.26250000
H       -0.22540000       1.86530000       1.10680000
H       -0.80120000      -0.56350000       0.51390000
H        0.24830000      -1.62170000      -1.47560000
H        1.64830000      -0.53680000      -3.05200000
H        0.33670000       0.65130000      -2.93280000
H        3.50700000      -0.20690000      -1.60050000
H        3.69720000       2.68300000      -0.58380000
H        4.93810000       1.43500000      -0.34540000
H        4.55290000       2.00870000      -1.98160000
H        3.22080000      -0.24810000       0.80320000
H        2.21350000       1.19720000       0.78320000
