23
Properties=species:S:1:pos:R:3 gdb_102399=T pbc="F F F"
C        0.15900000       1.55680000      -0.00950000
C        0.03940000       0.02940000      -0.03390000
C       -1.40150000      -0.53330000       0.05370000
C       -2.17160000      -0.11830000       1.32540000
C       -1.44850000      -0.38350000       2.65060000
C       -2.23680000      -0.09370000      -1.17050000
O       -1.56350000      -0.49440000      -2.35580000
C       -1.30460000      -2.06100000      -0.03360000
O       -2.00440000      -2.82970000       0.57640000
H        1.21180000       1.85190000      -0.05550000
H       -0.34370000       2.01620000      -0.86590000
H       -0.26380000       1.99090000       0.90180000
H        0.49090000      -0.34600000      -0.95780000
H        0.62970000      -0.39040000       0.78930000
H       -2.42270000       0.94690000       1.25410000
H       -3.12040000      -0.66450000       1.33010000
H       -1.20370000      -1.44320000       2.76210000
H       -0.52270000       0.19330000       2.73960000
H       -2.09010000      -0.10260000       3.49130000
H       -3.23270000      -0.55660000      -1.10280000
H       -2.37630000       0.99730000      -1.13970000
H       -2.11850000      -0.27540000      -3.10960000
H       -0.52850000      -2.43450000      -0.73580000
