23
Properties=species:S:1:pos:R:3 gdb_100062=T pbc="F F F"
C        0.37680000       1.26900000       0.44580000
C        0.01100000      -0.21820000       0.42260000
C       -1.45160000      -0.52290000       0.02630000
C       -2.45590000       0.12340000       0.98550000
O       -1.74740000       0.04460000      -1.25530000
C       -1.67020000      -2.04610000       0.00600000
C       -2.96020000      -2.57880000      -0.65770000
O       -2.20190000      -3.39370000      -1.57960000
C       -0.95470000      -2.89000000      -1.07570000
H        1.45350000       1.39960000       0.58920000
H        0.09440000       1.75000000      -0.49460000
H       -0.12910000       1.79970000       1.25770000
H        0.66860000      -0.73720000      -0.28920000
H        0.21270000      -0.67160000       1.40120000
H       -2.37730000       1.21200000       0.94880000
H       -3.47830000      -0.14490000       0.70440000
H       -2.28100000      -0.20730000       2.01360000
H       -1.10910000      -0.29440000      -1.89240000
H       -1.51160000      -2.44120000       1.01300000
H       -3.62110000      -3.18450000      -0.02720000
H       -3.54590000      -1.81470000      -1.18100000
H       -0.40320000      -2.32200000      -1.84120000
H       -0.29880000      -3.69050000      -0.71270000
