21
Properties=species:S:1:pos:R:3 gdb_53385=T pbc="F F F"
C        0.17220000       1.47060000      -0.32450000
C        0.11360000       0.02930000      -0.12700000
C        0.06890000      -1.16420000       0.03470000
C        0.01340000      -2.59530000       0.24010000
C       -0.11050000      -3.14150000       1.68560000
O       -1.21790000      -3.98180000       1.32780000
C       -1.33210000      -3.37810000       0.00530000
C       -2.58420000      -2.51760000      -0.08330000
C       -1.28060000      -4.44190000      -1.07940000
H        1.05840000       1.75900000      -0.90060000
H       -0.70770000       1.83350000      -0.86740000
H        0.21170000       2.00260000       0.63250000
H        0.83100000      -3.08550000      -0.29750000
H        0.74390000      -3.71570000       2.06070000
H       -0.38610000      -2.37850000       2.42410000
H       -2.59680000      -1.75920000       0.70300000
H       -2.63920000      -2.00600000      -1.04930000
H       -3.47130000      -3.14890000       0.02830000
H       -2.16440000      -5.08580000      -1.02330000
H       -1.25570000      -3.97990000      -2.07220000
H       -0.39340000      -5.07060000      -0.96280000
