17
Properties=species:S:1:pos:R:3 gdb_34436=T pbc="F F F"
N       -0.01190000      -1.12660000       0.03490000
C        0.01080000       0.02900000       0.01460000
C       -0.01190000       1.47520000       0.04630000
C       -0.92580000       2.15930000       1.06930000
C       -0.63060000       3.65320000       0.74660000
C        0.37990000       3.48290000      -0.38190000
C        1.32900000       2.27890000      -0.08070000
N        1.40460000       1.88210000      -1.53260000
C       -0.02860000       2.28430000      -1.29720000
H       -1.97310000       1.88650000       0.91550000
H       -0.65970000       1.88120000       2.09240000
H       -1.52420000       4.19530000       0.42400000
H       -0.20980000       4.19000000       1.60170000
H        0.81210000       4.36330000      -0.86040000
H        2.18670000       2.22520000       0.59160000
H        1.88030000       2.62000000      -2.06020000
H       -0.79080000       2.23710000      -2.07650000
