21
Properties=species:S:1:pos:R:3 gdb_121369=T pbc="F F F"
C       -0.03140000       1.33010000       0.14700000
O       -0.04180000      -0.06860000      -0.00240000
C        0.71280000      -0.50590000      -1.11620000
C        0.58960000      -2.01850000      -1.19030000
C       -0.82960000      -2.54100000      -1.44790000
O       -0.66780000      -3.87200000      -1.93940000
C        0.65430000      -4.04230000      -2.43490000
C        1.36140000      -2.68160000      -2.34010000
O        1.16890000      -1.88600000      -3.50540000
H        0.98860000       1.71720000       0.30250000
H       -0.45810000       1.83900000      -0.73200000
H       -0.63720000       1.57170000       1.02380000
H        0.34090000      -0.04700000      -2.04350000
H        1.77000000      -0.20890000      -1.00540000
H        0.95580000      -2.44470000      -0.24890000
H       -1.44460000      -2.57650000      -0.54580000
H       -1.33910000      -1.91580000      -2.19570000
H        1.17830000      -4.80100000      -1.83500000
H        0.62230000      -4.39790000      -3.47460000
H        2.43260000      -2.79330000      -2.12080000
H        1.51870000      -2.36780000      -4.26090000
