16
Properties=species:S:1:pos:R:3 gdb_42955=T pbc="F F F"
O        0.03110000       0.01890000       0.34220000
C       -0.00920000       1.19430000       0.10740000
C       -1.28060000       2.05020000      -0.00770000
C       -1.97470000       2.27830000       1.34880000
O       -1.24940000       3.52040000       1.53070000
C       -0.77400000       3.49200000       0.16160000
C        0.74090000       3.42890000      -0.01540000
C        1.55880000       2.82790000       1.06490000
N        1.14800000       2.01260000      -0.10130000
H       -1.89410000       1.76500000      -0.86260000
H       -3.05410000       2.45390000       1.27290000
H       -1.77420000       1.54880000       2.13920000
H       -1.23280000       4.28280000      -0.43920000
H        1.20040000       4.09440000      -0.73970000
H        2.62360000       3.03110000       1.11940000
H        1.06830000       2.63960000       2.01440000
