19
Properties=species:S:1:pos:R:3 gdb_56745=T pbc="F F F"
C        0.00510000       1.56720000       0.03530000
C       -0.01980000       0.02580000       0.03060000
C        0.73260000      -0.51590000       1.16730000
N        1.30250000      -0.94770000       2.07560000
C       -1.44430000      -0.53060000       0.04170000
C       -2.57610000      -0.30020000      -0.98820000
N       -3.25140000      -1.23110000       0.03330000
C       -1.91800000      -2.00060000       0.01160000
C       -2.56660000      -0.34740000       1.09180000
H        1.03050000       1.94200000       0.00370000
H       -0.53090000       1.94730000      -0.83850000
H       -0.47560000       1.95980000       0.93520000
H        0.47360000      -0.33350000      -0.88250000
H       -3.03460000       0.69070000      -1.04200000
H       -2.46790000      -0.74640000      -1.98080000
H       -1.76100000      -2.57340000      -0.90660000
H       -1.74970000      -2.61230000       0.90090000
H       -2.44680000      -0.83790000       2.06060000
H       -3.02570000       0.63940000       1.19400000
