19
Properties=species:S:1:pos:R:3 gdb_57268=T pbc="F F F"
C       -0.20730000       1.54070000      -0.09180000
C        0.00350000       0.02120000      -0.03100000
O        0.75520000      -0.22500000       1.15030000
C       -1.32970000      -0.62870000       0.09110000
N       -2.35990000      -1.14350000       0.19370000
C        0.74520000      -0.52690000      -1.26850000
C        2.07750000       0.14120000      -1.54670000
C        0.56390000      -1.96500000      -1.61720000
N       -0.01220000      -0.90570000      -2.46700000
H        0.76300000       2.03910000      -0.08310000
H       -0.74920000       1.81870000      -0.99870000
H       -0.77550000       1.87060000       0.78000000
H        0.95440000      -1.16850000       1.18430000
H        2.70040000       0.15690000      -0.64810000
H        2.60410000      -0.40350000      -2.33290000
H        1.94200000       1.16960000      -1.89380000
H        1.39280000      -2.50970000      -2.06020000
H       -0.11800000      -2.57220000      -1.02780000
H       -1.01570000      -0.85140000      -2.30040000
