22
Properties=species:S:1:pos:R:3 gdb_101318=T pbc="F F F"
C        2.05670000       3.20350000       1.68610000
C        1.10460000       2.05930000       1.31220000
C        1.21290000       1.67790000      -0.17330000
O        0.88750000       2.73980000      -1.05510000
C        1.38110000       0.84570000       2.17920000
N        0.85850000       0.85470000       3.55690000
C        0.37390000      -0.16710000       2.60380000
C       -1.10910000      -0.10010000       2.31720000
O       -1.85730000      -0.46550000       3.46490000
H        3.10250000       2.92970000       1.49570000
H        1.83160000       4.11080000       1.11670000
H        1.96030000       3.44760000       2.74760000
H        0.07980000       2.39840000       1.49430000
H        2.22170000       1.28250000      -0.38180000
H        0.50190000       0.87650000      -0.40030000
H        1.58620000       3.39810000      -0.99990000
H        2.39200000       0.45260000       2.05440000
H        1.53440000       0.45160000       4.19930000
H        0.74380000      -1.18090000       2.75000000
H       -1.38800000       0.90250000       1.96570000
H       -1.37720000      -0.81520000       1.53220000
H       -1.55970000       0.12470000       4.16780000
