19
Properties=species:S:1:pos:R:3 gdb_90463=T pbc="F F F"
C       -0.65910000       1.10180000       0.04100000
C        0.29430000      -0.08220000       0.00730000
C        1.18260000      -0.17130000      -1.26370000
C        2.57200000      -0.48280000      -0.73870000
C        2.48080000      -0.33030000       0.74370000
O        1.19550000       0.02240000       1.13190000
C        2.74600000      -1.72070000       0.15590000
C        1.79940000      -2.79190000       0.20100000
C        1.02490000      -3.71300000       0.23540000
H       -0.11070000       2.04230000      -0.07290000
H       -1.39230000       1.02430000      -0.76850000
H       -1.20000000       1.13100000       0.99090000
H       -0.26910000      -1.01400000       0.12000000
H        0.80200000      -0.92680000      -1.95670000
H        1.20630000       0.78870000      -1.79070000
H        3.43410000      -0.15390000      -1.30660000
H        3.24490000       0.12480000       1.36400000
H        3.78170000      -2.03770000       0.25380000
H        0.33870000      -4.52180000       0.28050000
