17
Properties=species:S:1:pos:R:3 gdb_19646=T pbc="F F F"
C       -0.01710000       1.54800000      -0.03150000
C       -0.02550000       0.01630000       0.02160000
C       -1.40190000      -0.55910000      -0.06620000
C       -1.93610000      -2.01680000       0.03690000
C       -3.21480000      -1.57720000      -0.69000000
C       -3.10560000      -1.46550000       0.80760000
N       -2.57340000      -0.03640000       0.73420000
C       -2.64670000      -0.14000000      -0.77260000
H        0.99670000       1.93470000       0.10380000
H       -0.38900000       1.91270000      -0.99460000
H       -0.65440000       1.96120000       0.75480000
H        0.58460000      -0.39610000      -0.79340000
H        0.43710000      -0.32650000       0.95720000
H       -1.46050000      -2.98730000       0.05670000
H       -3.87830000      -2.15680000      -1.31530000
H       -3.70200000      -1.86300000       1.61920000
H       -2.87700000       0.71640000      -1.39570000
