16
Properties=species:S:1:pos:R:3 gdb_30586=T pbc="F F F"
O        0.27030000       0.88870000       0.95860000
C       -0.05470000       0.16600000      -0.22680000
C       -1.40270000      -0.37130000      -0.13250000
C       -2.51950000      -0.82700000      -0.08280000
C       -3.82030000      -1.37600000      -0.01330000
C       -4.99940000      -0.73850000      -0.36670000
N       -6.02820000      -1.60840000      -0.15000000
C       -5.54440000      -2.80010000       0.33730000
C       -4.18210000      -2.69010000       0.43400000
H        1.16840000       1.21930000       0.85220000
H        0.01360000       0.81640000      -1.11490000
H        0.65270000      -0.66430000      -0.38830000
H       -5.16640000       0.25580000      -0.74660000
H       -6.99750000      -1.40480000      -0.31950000
H       -6.20970000      -3.61520000       0.57090000
H       -3.49840000      -3.44730000       0.78310000
