14
Properties=species:S:1:pos:R:3 gdb_74242=T pbc="F F F"
N       -0.03160000       1.33280000       0.11670000
C        0.02090000      -0.01700000       0.02690000
N       -1.01670000      -0.81360000       0.02010000
H       -1.97800000      -0.50060000       0.04510000
C       -0.69800000      -2.20920000      -0.00340000
C       -1.72670000      -3.14670000      -0.02420000
N       -2.61860000      -3.89630000      -0.04050000
C        0.71920000      -2.33560000      -0.01730000
O        1.45090000      -3.30780000      -0.04400000
C        1.25850000      -0.85270000       0.00390000
H        0.80290000       1.84670000      -0.11240000
H       -0.90000000       1.81860000      -0.04910000
H        1.87080000      -0.65580000      -0.88190000
H        1.88040000      -0.67930000       0.88740000
