23
Properties=species:S:1:pos:R:3 gdb_94234=T pbc="F F F"
C       -0.10940000       1.56020000      -0.18730000
C        0.05710000       0.05970000       0.00090000
C        1.05410000      -0.72100000      -0.89790000
C        1.40920000      -1.60900000       0.32200000
C        0.79250000      -0.52240000       1.26370000
C        1.86600000       0.41220000       1.83210000
C       -0.13840000      -1.02090000       2.38330000
C        0.58070000      -1.83440000       3.43520000
O        0.57490000      -1.60210000       4.61750000
H        0.85080000       2.08470000      -0.15690000
H       -0.57030000       1.77500000      -1.15790000
H       -0.75360000       1.99540000       0.58510000
H       -0.92800000      -0.41830000      -0.06560000
H        0.64920000      -1.21690000      -1.78310000
H        1.89550000      -0.09580000      -1.21190000
H        0.82990000      -2.53740000       0.33140000
H        2.46220000      -1.85810000       0.47750000
H        2.54140000       0.77500000       1.05150000
H        1.41940000       1.28430000       2.32170000
H        2.47790000      -0.10540000       2.57910000
H       -0.64630000      -0.18710000       2.88000000
H       -0.90570000      -1.67240000       1.94010000
H        1.14560000      -2.70800000       3.03220000
