21
Properties=species:S:1:pos:R:3 gdb_119468=T pbc="F F F"
C       -0.03650000       1.53700000       0.17360000
C       -0.12130000       0.02120000       0.14770000
O        0.88130000      -0.49600000       1.01760000
C        0.88700000      -1.87000000       1.10010000
C       -0.08610000      -2.63720000       1.94970000
C        1.39560000      -2.70340000       2.26540000
C        2.08840000      -3.65120000       1.29420000
O        1.65170000      -4.98880000       1.40770000
C        1.56110000      -2.79860000       0.08090000
H        0.94920000       1.87290000      -0.16060000
H       -0.79380000       1.97220000      -0.48520000
H       -0.19990000       1.91290000       1.18770000
H       -1.11260000      -0.32400000       0.47810000
H        0.03360000      -0.35860000      -0.87400000
H       -0.65140000      -2.02080000       2.64120000
H       -0.60560000      -3.51640000       1.58040000
H        1.78680000      -2.38660000       3.22380000
H        3.18140000      -3.58520000       1.37330000
H        2.08450000      -5.50440000       0.71970000
H        0.90380000      -3.32220000      -0.62080000
H        2.37140000      -2.30930000      -0.46510000
