19
Properties=species:S:1:pos:R:3 gdb_100498=T pbc="F F F"
C        0.04780000       1.40880000       0.27290000
C        0.02800000      -0.03430000       0.10720000
C       -0.00710000      -1.23320000      -0.03030000
C       -0.04720000      -2.67140000      -0.21470000
O       -1.09460000      -3.25800000      -0.40510000
C        1.29720000      -3.38550000      -0.15150000
C        1.91010000      -3.27430000       1.25790000
C        1.15460000      -4.83790000      -0.60280000
O        2.46160000      -5.39530000      -0.65450000
H        1.05860000       1.81310000       0.15650000
H       -0.60220000       1.89570000      -0.46190000
H       -0.31340000       1.68640000       1.26930000
H        1.97170000      -2.87310000      -0.85140000
H        1.25370000      -3.73720000       2.00290000
H        2.86960000      -3.79420000       1.27580000
H        2.06560000      -2.23010000       1.54050000
H        0.50930000      -5.38030000       0.10300000
H        0.66230000      -4.87350000      -1.58460000
H        2.37970000      -6.32410000      -0.88780000
