16
Properties=species:S:1:pos:R:3 gdb_66886=T pbc="F F F"
C        0.04900000       1.53590000       0.09180000
C        0.06780000       0.04130000      -0.01370000
C       -0.95900000      -0.87190000       0.74390000
N       -1.50880000      -2.03740000       0.06740000
C       -0.49700000      -2.63070000      -0.42150000
N        0.79480000      -1.99610000      -0.18860000
C        0.49010000      -1.06520000       0.96410000
C        0.72030000      -0.77150000      -1.05780000
N        1.20350000      -0.52090000      -2.18810000
H        1.04670000       1.94960000      -0.08370000
H       -0.62690000       1.96520000      -0.65420000
H       -0.29030000       1.85990000       1.08020000
H       -1.59620000      -0.35800000       1.45230000
H       -0.54290000      -3.51590000      -1.04510000
H        1.10360000      -1.04180000       1.85560000
H        1.67700000      -1.33840000      -2.57690000
