16
Properties=species:S:1:pos:R:3 gdb_123925=T pbc="F F F"
C       -0.01450000       1.53060000      -0.00260000
C        1.41530000       2.07560000       0.05120000
O        2.13870000       1.63360000       1.22610000
C        1.90990000       0.35050000       1.48720000
C        0.97060000      -0.49150000       0.96600000
C       -0.03680000      -0.01340000      -0.03530000
C        1.24790000      -1.69620000       1.66040000
N        2.24400000      -1.58760000       2.50890000
O        2.67970000      -0.24320000       2.39230000
H       -0.55900000       1.88960000       0.87780000
H       -0.50870000       1.94950000      -0.88480000
H        1.98540000       1.76080000      -0.83220000
H        1.42950000       3.16510000       0.10730000
H       -1.04380000      -0.37630000       0.19740000
H        0.19620000      -0.37470000      -1.04560000
H        0.74980000      -2.65360000       1.57970000
