21
Properties=species:S:1:pos:R:3 gdb_73933=T pbc="F F F"
C        0.07580000       1.52720000      -0.12930000
C        0.00070000       0.03970000      -0.00210000
C       -1.06530000      -0.75910000       0.12960000
C       -0.59180000      -2.19200000       0.21840000
O        0.82540000      -2.14500000       0.12700000
C        1.25280000      -0.79650000      -0.01050000
C       -2.48770000      -0.37560000       0.18590000
C       -3.57670000      -1.23860000      -0.43030000
C       -3.48450000      -1.11560000       1.06300000
H        0.56490000       1.81950000      -1.06770000
H       -0.90980000       1.99760000      -0.10710000
H        0.67320000       1.96380000       0.68160000
H       -0.88410000      -2.67330000       1.16590000
H       -0.99290000      -2.81830000      -0.59500000
H        1.82670000      -0.67730000      -0.94550000
H        1.93550000      -0.53230000       0.81520000
H       -2.66160000       0.69270000       0.10880000
H       -4.38450000      -0.73070000      -0.94540000
H       -3.28570000      -2.17940000      -0.88320000
H       -3.13120000      -1.97280000       1.62430000
H       -4.22830000      -0.52220000       1.58300000
