22
Properties=species:S:1:pos:R:3 gdb_109152=T pbc="F F F"
C        0.37670000       0.71480000       0.67730000
C       -0.37060000       0.34870000      -0.61500000
C        0.53080000      -0.22650000      -1.66080000
N        0.75480000       0.26410000      -2.81270000
C        1.69680000      -0.64350000      -3.47450000
C        2.01080000      -1.76270000      -2.43400000
C        1.58000000      -3.15230000      -2.89260000
C        3.45730000      -1.73630000      -1.94760000
O        1.15850000      -1.38170000      -1.30840000
H        0.87250000      -0.16170000       1.10200000
H        1.13800000       1.47710000       0.48540000
H       -0.31940000       1.11140000       1.42160000
H       -1.14920000      -0.38980000      -0.38790000
H       -0.85750000       1.22460000      -1.04870000
H        1.24760000      -1.04850000      -4.38930000
H        2.59970000      -0.09840000      -3.77370000
H        2.18020000      -3.47110000      -3.75120000
H        1.70830000      -3.88680000      -2.09200000
H        0.52820000      -3.14790000      -3.19280000
H        3.72410000      -0.73650000      -1.59270000
H        3.60790000      -2.44560000      -1.12830000
H        4.13700000      -2.00270000      -2.76370000
