16
Properties=species:S:1:pos:R:3 gdb_11889=T pbc="F F F"
O        0.02590000      -0.01450000      -0.17410000
C       -0.00030000       1.18920000      -0.05790000
N       -1.09430000       2.02300000      -0.25580000
C       -0.81350000       3.38000000       0.18920000
C        0.71490000       3.40160000       0.12430000
C        1.47030000       4.30110000      -0.81910000
C        1.53680000       4.51540000       0.68550000
N        1.06150000       2.01450000       0.30600000
H       -2.00640000       1.61220000      -0.13760000
H       -1.26300000       4.13090000      -0.46760000
H       -1.16220000       3.56270000       1.21690000
H        2.35020000       3.89770000      -1.31040000
H        0.91070000       5.01220000      -1.41820000
H        1.02240000       5.37300000       1.10800000
H        2.45930000       4.25710000       1.19480000
H        1.98890000       1.67810000       0.09920000
