17
Properties=species:S:1:pos:R:3 gdb_66993=T pbc="F F F"
C       -0.01060000       1.49820000       0.01280000
C       -0.07190000       0.00120000       0.10120000
C        0.28390000      -0.79350000       1.29480000
C       -0.14350000      -2.20490000       0.81720000
C        1.13460000      -2.14920000      -0.06400000
N        1.28790000      -0.67910000       0.18740000
N       -1.32540000      -1.94890000       0.00420000
C       -1.18630000      -0.72180000      -0.62730000
O       -1.84420000      -0.30540000      -1.55360000
H        0.87450000       1.87530000       0.52940000
H        0.03450000       1.80520000      -1.03570000
H       -0.90450000       1.94910000       0.45450000
H        0.44370000      -0.42410000       2.30110000
H       -0.28210000      -3.01760000       1.52760000
H        1.99300000      -2.65050000       0.39010000
H        1.03330000      -2.44850000      -1.11280000
H       -1.74830000      -2.69700000      -0.52930000
