17
Properties=species:S:1:pos:R:3 gdb_127281=T pbc="F F F"
C        0.00660000       1.39330000       0.08560000
N       -0.02340000      -0.04840000      -0.01120000
C       -0.06260000      -0.80390000      -1.15430000
C        0.00020000      -2.11300000      -0.74890000
C        0.00370000      -3.55380000      -1.16680000
C        0.09670000      -4.25800000       0.18470000
C        0.13680000      -3.38690000       1.21170000
C        0.07850000      -2.03850000       0.66070000
N        0.06860000      -0.79300000       1.12070000
H        1.01470000       1.75510000       0.31560000
H       -0.31820000       1.82190000      -0.86450000
H       -0.67090000       1.71800000       0.87820000
H       -0.13290000      -0.33050000      -2.12120000
H       -0.90240000      -3.85420000      -1.70960000
H        0.84990000      -3.82090000      -1.81360000
H        0.12610000      -5.33700000       0.27070000
H        0.20190000      -3.63520000       2.26260000
