21
Properties=species:S:1:pos:R:3 gdb_103683=T pbc="F F F"
C       -0.02900000       1.65340000       0.07860000
C       -0.02900000       0.12480000       0.18700000
C       -1.40880000      -0.51870000       0.00810000
O       -2.32900000      -0.07410000       0.98460000
C       -1.92070000      -0.52980000      -1.46910000
C       -1.42900000      -2.00570000      -1.60170000
C       -1.35960000      -2.06340000      -0.04410000
C       -2.37920000      -2.96070000      -2.26460000
O       -2.11210000      -3.68510000      -3.18870000
H        0.98590000       2.04880000       0.17620000
H       -0.42410000       1.99370000      -0.88470000
H       -0.62530000       2.11760000       0.87280000
H        0.65530000      -0.29350000      -0.56110000
H        0.35620000      -0.17520000       1.16920000
H       -2.36340000       0.88810000       0.95970000
H       -3.01300000      -0.46960000      -1.48550000
H       -1.50730000       0.19240000      -2.17670000
H       -0.45070000      -2.08750000      -2.07850000
H       -0.49520000      -2.56250000       0.39940000
H       -2.27650000      -2.47830000       0.38460000
H       -3.40470000      -2.94930000      -1.82030000
