20
Properties=species:S:1:pos:R:3 gdb_64240=T pbc="F F F"
C       -0.05350000       1.52080000       0.26820000
C        0.07790000       0.01480000       0.09240000
C       -1.24280000      -0.65790000      -0.24700000
O        1.09110000      -0.30780000      -0.91120000
C        2.01190000      -0.79150000       0.08290000
C        0.94340000      -0.70070000       1.17710000
O        1.33240000       0.05300000       2.30690000
C        0.78290000      -0.25960000       3.49970000
N        1.01080000       0.46300000       4.50710000
H        0.90430000       1.97380000       0.53120000
H       -0.40660000       1.96460000      -0.66760000
H       -0.77060000       1.76350000       1.05890000
H       -1.65160000      -0.24500000      -1.17450000
H       -1.10600000      -1.73420000      -0.38720000
H       -1.97690000      -0.49740000       0.55010000
H        2.39860000      -1.78820000      -0.15530000
H        2.85070000      -0.10530000       0.25410000
H        0.52940000      -1.66630000       1.48710000
H        0.16940000      -1.17120000       3.47010000
H        0.54550000       0.07590000       5.32530000
