17
Properties=species:S:1:pos:R:3 gdb_46075=T pbc="F F F"
O       -0.56530000      -0.05350000      -0.15630000
C       -0.27430000       1.11610000      -0.06410000
N       -1.15140000       2.19790000      -0.09760000
C       -0.47920000       3.42790000       0.28990000
C        0.99380000       3.10070000      -0.06460000
N        0.99910000       1.65280000       0.09550000
C        1.36420000       3.52650000      -1.47070000
C        2.17910000       4.71970000      -1.72690000
O        2.75220000       3.41240000      -1.79410000
H       -2.10140000       2.01630000       0.18480000
H       -0.84980000       4.29210000      -0.27000000
H       -0.57510000       3.64280000       1.36300000
H        1.68900000       3.57340000       0.63650000
H        1.77920000       1.11040000      -0.24290000
H        0.68970000       3.17490000      -2.25310000
H        2.08830000       5.24120000      -2.67810000
H        2.51470000       5.33340000      -0.89150000
