16
Properties=species:S:1:pos:R:3 gdb_34541=T pbc="F F F"
N        0.00710000      -1.16640000       0.11340000
C       -0.03050000      -0.00930000       0.06260000
C       -0.03310000       1.41590000      -0.00680000
C       -1.18850000       2.10110000       0.04140000
C       -1.19870000       3.57850000      -0.02400000
O       -0.30650000       4.28130000       0.87240000
C        0.01370000       4.26670000      -0.51360000
C        1.19690000       3.42600000      -0.93470000
C        1.30360000       2.12390000      -0.11690000
H       -2.13680000       1.57990000       0.11470000
H       -2.16790000       4.05730000      -0.13840000
H       -0.11020000       5.22390000      -1.02090000
H        1.08470000       3.19670000      -2.00210000
H        2.12420000       3.99860000      -0.82830000
H        1.65760000       2.35990000       0.89230000
H        2.04470000       1.45790000      -0.56570000
