14
Properties=species:S:1:pos:R:3 gdb_69045=T pbc="F F F"
O       -0.05740000       1.32370000      -0.26270000
C        0.01600000      -0.01650000      -0.09670000
C       -0.20700000      -0.95830000      -1.23820000
C       -1.06100000      -1.18700000      -0.02870000
O       -0.27080000      -1.82750000       1.00520000
C        0.59100000      -0.73550000       1.08260000
N        1.45140000      -0.41880000       1.93350000
C       -2.51390000      -1.10190000       0.09880000
O       -3.23490000      -0.65860000      -0.76590000
H       -0.08920000       1.74300000       0.60690000
H       -0.74170000      -0.49400000      -2.06180000
H        0.53170000      -1.70810000      -1.50640000
H        1.54460000      -1.12350000       2.66620000
H       -2.89850000      -1.45380000       1.07920000
