19
Properties=species:S:1:pos:R:3 gdb_103045=T pbc="F F F"
C       -0.33870000       1.44110000      -0.04720000
C        0.15350000      -0.00420000       0.08310000
C        0.78460000      -0.53370000      -1.20020000
C        1.90560000       0.21750000      -1.70490000
C        2.84120000       0.84600000      -2.12750000
C        0.90670000      -2.03300000      -1.53030000
C       -0.34480000      -2.77650000      -1.08270000
O       -1.20020000      -1.82320000      -1.77460000
C       -0.05120000      -1.16670000      -2.30360000
H        0.47940000       2.11570000      -0.31540000
H       -1.10960000       1.52160000      -0.82020000
H       -0.77080000       1.78790000       0.89630000
H        0.88790000      -0.07990000       0.89350000
H       -0.69050000      -0.64500000       0.34900000
H        3.66440000       1.40550000      -2.49700000
H        1.85080000      -2.47460000      -1.81620000
H       -0.43620000      -3.76710000      -1.54120000
H       -0.56440000      -2.84150000      -0.01170000
H       -0.08170000      -0.81410000      -3.32770000
