20
Properties=species:S:1:pos:R:3 gdb_86577=T pbc="F F F"
C       -0.31390000       1.49700000      -0.10790000
C        0.04500000       0.01880000      -0.02810000
N        1.25470000      -0.36710000      -0.81870000
H        1.97530000      -2.16250000      -1.01890000
H        1.55300000       0.31680000      -1.50770000
C        2.08560000      -0.44260000       0.40820000
C        0.78080000      -0.46520000       1.26400000
C        0.74360000       0.34610000       2.54690000
C        2.95070000      -1.69420000       0.48860000
O        2.66840000      -2.59040000      -0.46920000
O        3.77010000      -1.87830000       1.34930000
H        0.53630000       2.14020000       0.14180000
H       -0.64310000       1.75170000      -1.12150000
H       -1.13420000       1.73900000       0.57550000
H       -0.83070000      -0.58010000      -0.30190000
H        2.70770000       0.43410000       0.61630000
H        0.49990000      -1.50080000       1.47720000
H        1.01160000       1.39380000       2.38080000
H       -0.25170000       0.31970000       3.00320000
H        1.45360000      -0.06800000       3.26960000
