17
Properties=species:S:1:pos:R:3 gdb_53757=T pbc="F F F"
C       -0.04790000       1.51470000       0.01060000
C        0.07260000       0.00420000       0.00140000
O        1.13930000      -0.57260000      -0.01190000
C       -1.18450000      -0.72160000       0.00950000
C       -2.23360000      -1.31960000       0.01630000
C       -3.47060000      -2.08480000       0.02400000
C       -3.22640000      -3.61770000       0.01360000
C       -4.47500000      -4.36760000       0.02170000
C       -5.52310000      -4.95550000       0.02830000
H        0.94750000       1.96110000       0.00370000
H       -0.61720000       1.85160000      -0.86240000
H       -0.60080000       1.84220000       0.89770000
H       -4.06370000      -1.81910000       0.90700000
H       -4.08040000      -1.80990000      -0.84460000
H       -2.63390000      -3.87870000      -0.87030000
H       -2.61710000      -3.88790000       0.88330000
H       -6.43950000      -5.49190000       0.03370000
