19
Properties=species:S:1:pos:R:3 gdb_43419=T pbc="F F F"
O        0.31400000       0.52250000       1.38610000
C        0.06090000       1.30100000       0.47760000
C       -1.38490000       1.45020000       0.11680000
C       -2.08260000       1.51540000      -1.02250000
C       -1.68180000       1.48920000      -2.46740000
C       -0.20610000       1.66350000      -2.81150000
C        0.38820000       3.00610000      -2.31440000
C        1.31340000       2.88230000      -1.13620000
C        1.17280000       2.14630000      -0.02800000
H       -1.97180000       1.37500000       1.03020000
H       -3.16540000       1.53300000      -0.89530000
H       -2.04420000       0.53960000      -2.88950000
H       -2.26650000       2.26220000      -2.98760000
H        0.37920000       0.83210000      -2.40630000
H       -0.10800000       1.60500000      -3.90030000
H        0.93990000       3.48900000      -3.12600000
H       -0.43060000       3.69570000      -2.06420000
H        2.24730000       3.43490000      -1.22330000
H        2.00160000       2.11920000       0.67530000
