15
Properties=species:S:1:pos:R:3 gdb_19806=T pbc="F F F"
O       -0.01290000       0.00540000       0.27280000
C       -0.06590000       1.18350000       0.08650000
C       -1.19210000       2.24370000      -0.02980000
C       -0.04040000       3.27710000       0.03990000
C        0.57710000       3.77040000       1.36380000
C        0.68980000       2.67510000       2.39670000
C        1.62820000       2.66410000       1.22780000
N        0.96860000       2.17030000      -0.01430000
H       -1.75360000       2.23320000      -0.96700000
H       -1.89210000       2.21690000       0.80820000
H        0.02240000       4.00280000      -0.77320000
H        0.72010000       4.81220000       1.61900000
H        1.14100000       3.00010000       3.32900000
H       -0.06660000       1.90630000       2.52110000
H        2.70720000       2.68770000       1.30840000
