15
Properties=species:S:1:pos:R:3 gdb_49009=T pbc="F F F"
O       -0.73010000       0.93510000       0.68730000
C        0.21670000       0.81710000      -0.05070000
C        1.39190000       1.74370000      -0.05910000
C        1.51570000       2.82260000       1.04720000
N        1.80380000       3.87500000       0.03460000
C        1.52980000       2.95160000      -1.08140000
C        2.84220000       2.25010000      -1.53550000
O        3.73430000       2.48740000      -2.29540000
N        2.62050000       1.21070000      -0.63920000
H        0.27500000       0.00940000      -0.81300000
H        0.55640000       2.93890000       1.55980000
H        2.31330000       2.67650000       1.78170000
H        1.17270000       4.66490000       0.07310000
H        0.78490000       3.23170000      -1.82630000
H        3.29240000       0.57130000      -0.23550000
