23
Properties=species:S:1:pos:R:3 gdb_62555=T pbc="F F F"
C       -0.00970000       1.52390000      -0.03560000
C        0.05150000       0.00410000      -0.04640000
C       -1.18630000      -0.61690000       0.58810000
C        0.67210000      -0.79640000      -1.19390000
C       -0.03570000      -1.87050000      -1.97310000
C        1.89240000      -0.04840000      -1.76200000
C        2.57050000      -0.07470000      -0.35490000
C        1.32900000      -0.78350000       0.19160000
O        1.40140000      -1.83300000       1.09930000
H        0.87630000       1.99750000      -0.46230000
H       -0.87790000       1.87800000      -0.60450000
H       -0.12030000       1.89850000       0.98930000
H       -2.08120000      -0.41040000      -0.00990000
H       -1.09390000      -1.69670000       0.71170000
H       -1.35650000      -0.18690000       1.58290000
H       -0.58890000      -1.43990000      -2.81760000
H        0.68300000      -2.58760000      -2.38610000
H       -0.74850000      -2.43160000      -1.36500000
H        2.43670000      -0.65280000      -2.49240000
H        1.70500000       0.93490000      -2.20360000
H        3.44150000      -0.73350000      -0.33480000
H        2.84470000       0.88440000       0.09750000
H        1.30690000      -1.47600000       1.98960000
