19
Properties=species:S:1:pos:R:3 gdb_72559=T pbc="F F F"
C       -0.08900000       1.49230000       0.03310000
C        0.00820000      -0.01070000      -0.01900000
C        0.68410000      -0.65020000      -1.26800000
C        0.06640000      -2.07850000      -1.26890000
C       -0.82640000      -2.01970000      -0.00770000
C        0.04110000      -2.07130000       1.26380000
C        0.68390000      -0.67710000       1.19670000
O        1.52930000      -0.20910000       1.91120000
O       -1.27930000      -0.65470000      -0.00180000
H        0.90970000       1.91660000       0.16760000
H       -0.52550000       1.89040000      -0.88690000
H       -0.70640000       1.80600000       0.87890000
H        0.39880000      -0.08700000      -2.16010000
H        1.77510000      -0.64510000      -1.20010000
H       -0.54200000      -2.24670000      -2.15990000
H        0.81420000      -2.87390000      -1.21610000
H       -1.68820000      -2.68620000      -0.01090000
H       -0.58250000      -2.14460000       2.16050000
H        0.79490000      -2.86140000       1.30180000
