15
Properties=species:S:1:pos:R:3 gdb_23892=T pbc="F F F"
C       -0.49490000       1.07730000      -0.03190000
O        0.50100000       0.07820000       0.11100000
C        0.94740000      -0.52100000      -1.08200000
C        2.39290000      -0.96340000      -0.88380000
C        0.05900000      -1.71950000      -1.44380000
F       -1.22460000      -1.35540000      -1.60550000
F        0.46360000      -2.27470000      -2.59970000
F        0.09170000      -2.66640000      -0.50130000
H       -0.17770000       1.85550000      -0.74200000
H       -1.45440000       0.66680000      -0.36360000
H       -0.62150000       1.53130000       0.95350000
H        0.87290000       0.17950000      -1.92780000
H        2.45930000      -1.63710000      -0.02630000
H        2.76600000      -1.48000000      -1.77090000
H        3.01640000      -0.08850000      -0.69000000
