13
Properties=species:S:1:pos:R:3 gdb_29849=T pbc="F F F"
C        0.00020000       1.47830000       0.00950000
N       -0.04410000       0.02810000       0.00120000
C       -1.15640000      -0.78240000       0.00410000
C       -0.71860000      -2.05880000      -0.00630000
O        0.66550000      -2.06740000      -0.01570000
C        1.10250000      -0.75960000      -0.01110000
O        2.24990000      -0.41700000      -0.01690000
C       -1.41860000      -3.27810000      -0.00860000
N       -2.01040000      -4.27460000      -0.01040000
H        1.05240000       1.76490000       0.00220000
H       -0.49360000       1.88760000      -0.87650000
H       -0.47820000       1.87710000       0.90860000
H       -2.16270000      -0.39930000       0.01310000
