23
Properties=species:S:1:pos:R:3 gdb_81379=T pbc="F F F"
C       -0.72540000       1.28480000       0.19620000
C        0.09610000       0.01230000      -0.03610000
C        0.98020000       0.15030000      -1.30400000
C        2.25090000      -0.73650000      -1.28480000
C        2.74140000      -0.96020000       0.15550000
C        1.64460000      -1.73020000       0.94500000
C        0.97740000      -0.34500000       1.17970000
C        2.40360000       0.27810000       1.04440000
O        3.13580000       0.37910000       2.24900000
H       -0.07370000       2.13790000       0.41930000
H       -1.31540000       1.54220000      -0.69020000
H       -1.41700000       1.16480000       1.03670000
H       -0.60580000      -0.82100000      -0.17940000
H        0.38650000      -0.04240000      -2.20340000
H        1.29490000       1.19770000      -1.37770000
H        2.05530000      -1.71250000      -1.74580000
H        3.03190000      -0.25970000      -1.88800000
H        3.76910000      -1.33150000       0.19330000
H        1.06600000      -2.48340000       0.40080000
H        2.01830000      -2.18890000       1.86590000
H        0.45520000      -0.17220000       2.12570000
H        2.48680000       1.26620000       0.58470000
H        3.09260000      -0.46480000       2.70990000
