14
Properties=species:S:1:pos:R:3 gdb_7947=T pbc="F F F"
O        0.40990000       1.12250000       0.63580000
C       -0.01490000      -0.07260000       0.05070000
C       -1.53080000      -0.18130000      -0.18110000
C       -1.68920000      -1.10530000      -1.39540000
O       -2.70130000      -1.65620000      -1.73230000
C       -0.33570000      -1.20960000      -2.12340000
C        0.56100000      -0.25880000      -1.35710000
O        1.51440000       0.36280000      -1.75580000
H        1.17540000       1.41270000       0.11620000
H        0.31550000      -0.94390000       0.64740000
H       -2.10710000      -0.53950000       0.67320000
H       -1.91930000       0.80880000      -0.45530000
H        0.03210000      -2.24010000      -2.03520000
H       -0.40100000      -0.97970000      -3.18940000
