14
Properties=species:S:1:pos:R:3 gdb_128456=T pbc="F F F"
C        0.04750000       1.37430000       0.00940000
O       -0.04000000      -0.06250000       0.00360000
C       -1.28210000      -0.54960000       0.01080000
O       -2.30220000       0.08210000       0.02120000
N       -1.24540000      -1.95570000       0.00410000
C       -0.17090000      -2.82450000      -0.00780000
N       -0.58110000      -4.05650000      -0.01110000
N       -1.97640000      -4.03410000      -0.00040000
C       -2.34540000      -2.78930000       0.00870000
H        1.11300000       1.59880000       0.00160000
H       -0.44150000       1.78670000      -0.87550000
H       -0.42670000       1.77860000       0.90600000
H        0.85130000      -2.48550000      -0.01380000
H       -3.35290000      -2.40730000       0.01820000
