18
Properties=species:S:1:pos:R:3 gdb_42347=T pbc="F F F"
O       -0.10620000       0.46370000       1.02360000
C       -0.16830000       1.59980000       0.58490000
C        1.03880000       2.50880000       0.51720000
C        2.19980000       2.18720000       1.36140000
O        2.21370000       1.90510000      -0.03180000
N       -1.32930000       2.14610000       0.14710000
C       -1.67980000       3.31440000      -0.67540000
C       -3.09360000       2.69400000      -0.86900000
C       -2.61310000       1.46680000      -0.04100000
H        0.87770000       3.54140000       0.21030000
H        2.85620000       2.99270000       1.68760000
H        2.12870000       1.31450000       2.00580000
H       -1.65200000       4.26750000      -0.13650000
H       -1.08610000       3.40820000      -1.59130000
H       -3.89960000       3.26420000      -0.40660000
H       -3.35830000       2.47600000      -1.90360000
H       -2.52180000       0.52540000      -0.59180000
H       -3.15060000       1.27440000       0.89250000
