17
Properties=species:S:1:pos:R:3 gdb_76774=T pbc="F F F"
C       -0.53730000       1.33560000      -0.08070000
C       -0.01150000      -0.09260000      -0.05400000
C        1.24270000      -0.42880000      -0.93090000
O        1.91460000       0.73220000      -1.37480000
C        1.90640000      -1.06230000       0.32700000
O        2.92770000      -1.65730000       0.51590000
C        0.76320000      -0.56560000       1.19480000
C        0.86760000       0.02960000       2.53950000
O        0.22960000      -1.22610000       2.32480000
H        0.26520000       2.05230000       0.10670000
H       -0.97490000       1.57220000      -1.05500000
H       -1.31520000       1.47190000       0.67750000
H       -0.81300000      -0.80440000      -0.27720000
H        1.05210000      -1.13540000      -1.75020000
H        2.80690000       0.47360000      -1.63150000
H        1.81950000      -0.01090000       3.06580000
H        0.20820000       0.85630000       2.79810000
