16
Properties=species:S:1:pos:R:3 gdb_13919=T pbc="F F F"
O       -0.10840000       0.00380000       0.03960000
C       -0.08830000       1.19740000      -0.02050000
C       -1.14560000       2.29080000      -0.27650000
C        0.02840000       3.26900000      -0.57910000
C        1.04470000       2.25530000       0.01180000
C        1.76800000       2.49650000       1.36180000
C        3.03230000       2.10130000       0.57400000
O        2.27850000       2.00020000      -0.65590000
H       -1.85330000       2.08120000      -1.08130000
H       -1.71030000       2.53600000       0.62850000
H        0.19710000       3.39580000      -1.65110000
H       -0.00480000       4.24930000      -0.10060000
H        1.73960000       3.53340000       1.70140000
H        1.48460000       1.83250000       2.17960000
H        3.82200000       2.85720000       0.50500000
H        3.47410000       1.13950000       0.85610000
