19
Properties=species:S:1:pos:R:3 gdb_122725=T pbc="F F F"
C        0.01420000       1.52020000       0.00960000
C       -0.01740000      -0.01020000       0.00190000
C       -1.43620000      -0.56050000       0.01270000
O       -1.37060000      -1.97490000       0.00470000
C       -2.64820000      -2.57510000       0.01380000
C       -2.52230000      -4.02470000       0.00480000
C       -2.45370000      -5.23190000      -0.00230000
C       -2.36800000      -6.58980000      -0.01030000
C       -2.29340000      -7.79480000      -0.01760000
H        1.04320000       1.89020000       0.00160000
H       -0.49430000       1.93550000      -0.86750000
H       -0.47730000       1.92630000       0.90070000
H        0.49820000      -0.39820000      -0.88360000
H        0.51520000      -0.40740000       0.87330000
H       -1.98000000      -0.20850000       0.90690000
H       -1.99710000      -0.19920000      -0.86710000
H       -3.22030000      -2.26220000       0.90550000
H       -3.23740000      -2.25270000      -0.86330000
H       -2.22550000      -8.85430000      -0.02450000
