19
Properties=species:S:1:pos:R:3 gdb_85232=T pbc="F F F"
C        0.15540000       1.59270000       0.02790000
C        0.00440000       0.07030000       0.02140000
C        0.61630000      -0.63000000      -1.21830000
C        1.15520000      -1.97290000      -0.71510000
O        1.31360000      -2.97820000      -1.35980000
C        1.38990000      -1.84710000       0.77610000
C        1.68860000      -3.05030000       1.61640000
O        2.12850000      -0.62650000       1.04200000
C        0.70890000      -0.60550000       1.19230000
H        1.21440000       1.86960000       0.02350000
H       -0.31790000       2.03910000      -0.85200000
H       -0.30710000       2.03410000       0.91710000
H       -1.06090000      -0.18780000       0.08580000
H       -0.09420000      -0.78850000      -2.03170000
H        1.45470000      -0.05130000      -1.62160000
H        2.59510000      -3.54680000       1.25800000
H        1.83260000      -2.76380000       2.66070000
H        0.86990000      -3.77330000       1.55350000
H        0.34910000      -0.47210000       2.21080000
