16
Properties=species:S:1:pos:R:3 gdb_127314=T pbc="F F F"
C       -0.06840000       1.41310000       0.16470000
N        0.01480000      -0.01780000      -0.01860000
C        0.23950000      -0.70580000      -1.16240000
C        0.23290000      -2.04990000      -0.84940000
C       -0.00970000      -2.06050000       0.54020000
N       -0.12330000      -3.14440000       1.41160000
C       -0.01820000      -4.46480000       1.08120000
O        0.19160000      -4.90320000      -0.02850000
N       -0.14200000      -0.83530000       1.04580000
H        0.08250000       1.90050000      -0.79980000
H       -1.05010000       1.69040000       0.55900000
H        0.70020000       1.75310000       0.86460000
H        0.38560000      -0.19680000      -2.10220000
H        0.37590000      -2.89710000      -1.49370000
H       -0.30050000      -2.90440000       2.37580000
H       -0.15090000      -5.10870000       1.97210000
