23
Properties=species:S:1:pos:R:3 gdb_108791=T pbc="F F F"
C        0.14660000       1.46850000       0.39490000
C       -0.00370000       0.04040000      -0.16090000
C       -1.41200000      -0.47200000      -0.12260000
C       -2.21140000      -0.78840000      -1.13730000
C       -3.55570000      -1.27330000      -0.65140000
C       -4.71020000      -0.36340000      -1.09590000
C       -3.83160000      -2.73350000      -1.04050000
O       -3.44270000      -1.19500000       0.78630000
C       -2.15840000      -0.72430000       1.16620000
H        1.18780000       1.79900000       0.33350000
H       -0.46880000       2.17380000      -0.17210000
H       -0.15940000       1.52630000       1.44390000
H        0.36220000       0.00970000      -1.19280000
H        0.64310000      -0.63330000       0.41860000
H       -1.96300000      -0.72690000      -2.19060000
H       -4.83780000      -0.39350000      -2.18320000
H       -5.64580000      -0.68960000      -0.63130000
H       -4.51670000       0.67030000      -0.79760000
H       -3.01920000      -3.37960000      -0.69730000
H       -4.76450000      -3.07520000      -0.58150000
H       -3.92410000      -2.83930000      -2.12660000
H       -1.64600000      -1.47400000       1.79290000
H       -2.26030000       0.18430000       1.78080000
