18
Properties=species:S:1:pos:R:3 gdb_53420=T pbc="F F F"
C        0.05670000       1.55630000      -0.11610000
C        0.02280000       0.10230000      -0.06370000
C       -0.01320000      -1.10060000      -0.02570000
C       -0.04070000      -2.56090000       0.02580000
C        0.73510000      -3.13090000       1.22280000
C       -0.01410000      -2.78360000       2.51070000
N       -1.43990000      -3.09020000       2.43500000
C       -1.96240000      -3.19390000       1.29000000
O       -1.40750000      -3.03810000       0.05870000
H        0.96730000       1.94840000       0.34970000
H        0.02690000       1.91870000      -1.14930000
H       -0.79930000       1.98770000       0.41390000
H        0.35870000      -2.96420000      -0.91030000
H        0.79270000      -4.21840000       1.10400000
H        1.75480000      -2.73600000       1.22520000
H        0.40730000      -3.33270000       3.35930000
H        0.10220000      -1.71690000       2.74110000
H       -3.01340000      -3.45530000       1.17790000
