16
Properties=species:S:1:pos:R:3 gdb_53642=T pbc="F F F"
C       -0.13060000       1.44220000       0.01200000
C       -0.07250000      -0.01160000       0.00310000
C       -0.02490000      -1.21360000      -0.00430000
C        0.07240000      -2.66100000      -0.01360000
O       -1.25870000      -3.22360000      -0.00350000
C       -1.31730000      -4.56240000      -0.00990000
N       -0.30590000      -5.32590000      -0.02380000
C       -2.75810000      -5.02900000       0.00200000
O       -3.04620000      -6.19670000      -0.00110000
H        0.87650000       1.87300000       0.00510000
H       -0.66160000       1.82470000      -0.86620000
H       -0.64500000       1.81440000       0.90440000
H        0.60060000      -3.03030000      -0.90040000
H        0.61820000      -3.04050000       0.85800000
H       -0.63400000      -6.29430000      -0.02550000
H       -3.51420000      -4.21980000       0.01360000
