19
Properties=species:S:1:pos:R:3 gdb_101984=T pbc="F F F"
C        0.17350000       1.29640000       0.16580000
N       -0.07390000      -0.10130000      -0.09090000
C        0.45760000      -0.74940000      -1.16580000
C       -0.05850000      -2.15720000      -1.28810000
O       -0.89260000      -2.60940000      -0.53700000
N        1.29530000      -0.16410000      -1.94610000
C        1.91740000      -0.78040000      -3.05560000
C        2.19970000       0.11370000      -4.24840000
C        3.33210000      -0.32870000      -3.36720000
H        1.24720000       1.48300000       0.27380000
H       -0.18640000       1.93460000      -0.65240000
H       -0.33170000       1.58290000       1.09030000
H       -0.81040000      -0.59150000       0.38950000
H        0.35490000      -2.76500000      -2.11080000
H        1.70030000      -1.81920000      -3.29660000
H        2.10550000      -0.32010000      -5.23780000
H        1.86620000       1.14080000      -4.16170000
H        3.75770000       0.40170000      -2.68980000
H        4.02780000      -1.07150000      -3.74170000
