19
Properties=species:S:1:pos:R:3 gdb_97687=T pbc="F F F"
C        0.03190000       1.36190000      -0.32970000
C       -0.23070000      -0.05480000       0.19030000
C        0.70450000      -0.44790000       1.32250000
C        1.23700000      -1.82430000       1.40240000
O        2.05210000      -0.76780000       0.90900000
C        0.59710000       0.32520000       2.53860000
C        0.46520000       0.99170000       3.53470000
C        0.35740000       1.75750000       4.77620000
O        0.24220000       0.94770000       5.93740000
H        1.05870000       1.45240000      -0.69610000
H       -0.64710000       1.60450000      -1.15200000
H       -0.11290000       2.10440000       0.46060000
H       -1.26410000      -0.14430000       0.54570000
H       -0.10050000      -0.78140000      -0.61870000
H        1.52720000      -2.23040000       2.36990000
H        0.91130000      -2.55690000       0.66430000
H        1.21370000       2.44690000       4.84910000
H       -0.54530000       2.37810000       4.75540000
H        0.98300000       0.33250000       5.93430000
