20
Properties=species:S:1:pos:R:3 gdb_75607=T pbc="F F F"
C       -0.01910000       1.49340000       0.01560000
C       -0.02790000      -0.00590000      -0.00930000
N       -1.08820000      -0.68400000      -0.07960000
C       -0.98800000      -2.14350000      -0.09690000
C       -0.79430000      -2.75280000       1.30320000
C        0.62090000      -2.67710000       1.88360000
O        1.03640000      -1.34710000       2.20120000
C        1.84820000      -0.73100000       1.26080000
O        1.23160000      -0.59390000      -0.01300000
H        0.56640000       1.87940000      -0.82550000
H       -1.03960000       1.87130000      -0.03970000
H        0.45020000       1.86680000       0.93300000
H       -1.92870000      -2.52060000      -0.50960000
H       -0.17710000      -2.48140000      -0.75560000
H       -1.49060000      -2.27660000       2.00260000
H       -1.06430000      -3.81600000       1.25830000
H        0.64940000      -3.23310000       2.82730000
H        1.34360000      -3.14180000       1.19770000
H        2.10370000       0.24750000       1.68620000
H        2.76140000      -1.30520000       1.05310000
