23
Properties=species:S:1:pos:R:3 gdb_41888=T pbc="F F F"
C        0.00400000       1.54610000      -0.12150000
C        1.39890000       2.15550000       0.17520000
C        2.33280000       1.15200000       0.89550000
C        1.53390000       0.40850000       1.98630000
C        0.39540000      -0.45150000       1.37920000
C       -0.01130000       0.00940000      -0.04130000
C        0.84620000      -0.66620000      -1.13310000
C        2.33940000      -0.57050000      -0.96090000
C        2.98730000       0.19260000      -0.08110000
H       -0.72420000       1.92650000       0.60540000
H       -0.35280000       1.87210000      -1.10490000
H        1.87930000       2.48420000      -0.75120000
H        1.28190000       3.04890000       0.79970000
H        3.12950000       1.72270000       1.38460000
H        2.20140000      -0.21780000       2.58700000
H        1.11490000       1.15770000       2.67010000
H        0.69700000      -1.50360000       1.34120000
H       -0.47880000      -0.40820000       2.03840000
H       -1.04290000      -0.31730000      -0.22080000
H        0.57830000      -1.73230000      -1.17280000
H        0.56270000      -0.26850000      -2.12040000
H        2.92270000      -1.20680000      -1.62490000
H        4.07380000       0.14450000      -0.05670000
