13
Properties=species:S:1:pos:R:3 gdb_43620=T pbc="F F F"
O        0.16230000       0.29370000      -0.71240000
C       -0.01650000       1.30260000      -0.11530000
C       -1.19710000       2.16190000       0.33420000
C       -0.09550000       3.04650000       0.97270000
O        0.93270000       2.12220000       0.44960000
C        0.05600000       4.39580000       0.48410000
C        0.16680000       5.53550000       0.09310000
C        0.29120000       6.81450000      -0.35070000
C        0.40130000       7.95040000      -0.74420000
H       -1.75570000       2.62300000      -0.48030000
H       -1.87920000       1.67330000       1.03070000
H       -0.07520000       3.01680000       2.06560000
H        0.50020000       8.94940000      -1.09110000
