23
Properties=species:S:1:pos:R:3 gdb_104448=T pbc="F F F"
C        0.07090000       1.55180000       0.06940000
C       -0.05770000       0.02570000       0.05020000
C       -1.49310000      -0.51020000      -0.08410000
C       -2.17480000       0.02540000      -1.35490000
C       -1.47730000      -2.05590000      -0.05360000
C       -2.85290000      -2.62470000       0.30280000
O       -3.33990000      -2.02590000       1.49540000
C       -3.41740000      -0.63340000       1.34600000
O       -2.17370000      -0.03700000       1.09890000
H        1.10260000       1.84400000       0.28720000
H       -0.19970000       2.00090000      -0.89100000
H       -0.57440000       1.98090000       0.84010000
H        0.54200000      -0.39500000      -0.76690000
H        0.35000000      -0.38040000       0.98280000
H       -1.54720000      -0.17300000      -2.22960000
H       -3.14600000      -0.44090000      -1.53710000
H       -2.33080000       1.10380000      -1.27910000
H       -1.14060000      -2.45170000      -1.01850000
H       -0.76250000      -2.38260000       0.70900000
H       -3.57380000      -2.46560000      -0.51620000
H       -2.79720000      -3.70020000       0.49100000
H       -4.13780000      -0.38730000       0.54400000
H       -3.77210000      -0.22830000       2.29650000
