23
Properties=species:S:1:pos:R:3 gdb_101664=T pbc="F F F"
C       -0.08060000       1.45810000      -0.10470000
O       -0.08920000       0.08010000       0.18640000
C       -1.34030000      -0.56840000       0.00180000
C       -1.67890000      -0.76210000      -1.48000000
C       -1.24630000      -1.91470000       0.72720000
C       -0.86350000      -1.81770000       2.22120000
C       -1.89570000      -1.04820000       3.06180000
C       -0.73110000      -3.22720000       2.76320000
O        0.29590000      -3.75130000       3.10830000
H        0.89480000       1.84410000       0.20170000
H       -0.21510000       1.66770000      -1.17560000
H       -0.86440000       1.99630000       0.45180000
H       -2.13180000       0.04530000       0.46430000
H       -2.63290000      -1.28770000      -1.58860000
H       -1.76900000       0.19500000      -2.00110000
H       -0.89940000      -1.35090000      -1.97370000
H       -2.20840000      -2.43280000       0.62130000
H       -0.49610000      -2.52490000       0.20960000
H        0.11700000      -1.34220000       2.29970000
H       -2.88900000      -1.50720000       2.99230000
H       -1.60670000      -1.03090000       4.11730000
H       -1.98050000      -0.01150000       2.72690000
H       -1.70090000      -3.78200000       2.81770000
