17
Properties=species:S:1:pos:R:3 gdb_79780=T pbc="F F F"
O        0.10740000       1.44310000      -0.09940000
C       -0.01500000       0.06470000       0.03070000
C        0.20610000      -0.66270000       1.38010000
C       -0.75290000      -0.14530000       2.50220000
N       -1.63020000       0.94490000       1.94460000
C       -2.33470000      -0.13150000       1.16090000
C       -1.38970000      -0.64870000       0.02690000
N       -0.80960000      -1.73680000       0.94910000
C       -1.73920000      -1.25880000       2.05040000
H       -0.47450000       1.80570000       0.59050000
H        0.62200000      -0.40540000      -0.72540000
H        1.20190000      -0.98390000       1.68850000
H       -0.35440000       0.01760000       3.50280000
H       -2.25480000       1.25990000       2.68430000
H       -3.38530000       0.04410000       0.93270000
H       -1.86000000      -0.95720000      -0.90780000
H       -2.27730000      -1.97080000       2.67770000
