16
Properties=species:S:1:pos:R:3 gdb_88311=T pbc="F F F"
O        0.10120000       1.32070000      -0.16090000
C        0.00450000      -0.04200000      -0.01600000
C       -0.37820000      -0.69680000       1.25330000
C       -1.38860000      -0.74100000       0.09570000
C       -2.54440000       0.16300000       0.16430000
O       -2.50070000       1.25450000       0.70290000
C       -3.82040000      -0.33550000      -0.53290000
C       -4.93380000       0.60220000      -0.46720000
N       -5.83180000       1.32640000      -0.42730000
H       -0.64180000       1.72310000       0.31960000
H        0.70870000      -0.55060000      -0.66620000
H        0.07940000      -1.64080000       1.52710000
H       -0.65450000      -0.05200000       2.08130000
H       -1.52450000      -1.68250000      -0.42410000
H       -3.58250000      -0.55410000      -1.58160000
H       -4.11640000      -1.29260000      -0.08570000
