21
Properties=species:S:1:pos:R:3 gdb_100920=T pbc="F F F"
C       -0.12090000       1.51120000       0.05070000
C       -0.21160000      -0.00920000      -0.09690000
C        0.74800000      -0.55070000      -1.16920000
O        2.10100000      -0.20970000      -0.90240000
C        0.59240000      -2.07140000      -1.39680000
C        1.39170000      -2.52490000      -2.63110000
O        1.20870000      -3.92550000      -2.78280000
C        1.03320000      -2.90460000      -0.20460000
O        1.78800000      -2.51660000       0.66020000
H        0.90490000       1.81130000       0.27820000
H       -0.41770000       2.01660000      -0.87540000
H       -0.77390000       1.87050000       0.85160000
H        0.01490000      -0.49020000       0.86220000
H       -1.23650000      -0.30140000      -0.36120000
H        0.50940000      -0.05060000      -2.11860000
H        2.34940000      -0.72600000      -0.12140000
H       -0.46140000      -2.31480000      -1.58840000
H        1.02580000      -1.97250000      -3.51010000
H        2.44650000      -2.26040000      -2.48300000
H        1.79080000      -4.23290000      -3.48370000
H        0.63250000      -3.93640000      -0.17230000
