14
Properties=species:S:1:pos:R:3 gdb_19102=T pbc="F F F"
O        0.00320000      -0.01460000       0.04170000
C       -0.01260000       1.18030000       0.07240000
C       -1.09830000       2.26950000      -0.02430000
C       -0.79980000       3.25990000       1.11900000
C       -0.05160000       4.24540000       0.25610000
C        0.74740000       3.28090000       1.09700000
C        1.04000000       2.29850000      -0.05460000
C       -0.05210000       3.13640000      -0.84570000
H       -2.12280000       2.07100000      -0.32790000
H       -1.36490000       3.42550000       2.02590000
H       -0.06670000       5.32580000       0.22530000
H        1.33340000       3.46220000       1.98750000
H        2.06050000       2.12770000      -0.38730000
H       -0.06880000       3.23780000      -1.92630000
