14
Properties=species:S:1:pos:R:3 gdb_132382=T pbc="F F F"
N        0.01630000       1.35390000       0.13360000
C       -0.01210000      -0.01080000       0.06190000
C       -1.22420000      -0.72090000       0.02880000
C       -1.08280000      -2.09440000      -0.00740000
F       -2.17890000      -2.84310000      -0.05330000
N        0.05650000      -2.75110000      -0.00410000
C        1.14800000      -1.96520000       0.03900000
N        2.34960000      -2.60600000       0.09050000
N        1.17620000      -0.62780000       0.05950000
H        0.90800000       1.78210000      -0.05690000
H       -0.79980000       1.86930000      -0.14930000
H       -2.19400000      -0.24410000       0.03060000
H        2.35780000      -3.58180000      -0.15210000
H        3.17060000      -2.05770000      -0.09980000
