20
Properties=species:S:1:pos:R:3 gdb_59282=T pbc="F F F"
C       -0.14140000       1.52550000      -0.00280000
C        0.04260000       0.00370000      -0.08110000
C        0.84420000      -0.37800000      -1.33320000
C        0.71240000      -0.55010000       1.20940000
C        0.06370000      -0.15390000       2.51660000
C       -0.27380000      -1.25640000       3.19090000
N        0.08350000      -2.41040000       2.48010000
C        0.68580000      -2.09690000       1.27590000
O        1.08660000      -2.90420000       0.46600000
H        0.82180000       2.03120000       0.13750000
H       -0.57770000       1.90240000      -0.93350000
H       -0.80180000       1.82090000       0.81710000
H       -0.95340000      -0.45420000      -0.15170000
H        1.82650000       0.11070000      -1.32310000
H        1.00500000      -1.45530000      -1.39050000
H        0.31930000      -0.04730000      -2.23550000
H        1.76880000      -0.24250000       1.19160000
H       -0.08160000       0.85900000       2.85720000
H       -0.74540000      -1.35460000       4.15830000
H       -0.08510000      -3.35980000       2.76760000
