17
Properties=species:S:1:pos:R:3 gdb_44877=T pbc="F F F"
O        0.03610000       0.07950000       0.03860000
C        0.03670000       1.27880000       0.04190000
C       -1.17290000       2.24450000       0.08480000
C       -0.39260000       3.57510000       0.01800000
C        0.67800000       3.26670000      -1.07370000
C        1.22230000       2.24220000      -0.01160000
C        0.74420000       3.29640000       1.01010000
C        1.50620000       4.17980000       1.88080000
O        0.64330000       3.14340000       2.40250000
H       -1.84430000       2.08240000      -0.76350000
H       -1.74000000       2.11330000       1.01060000
H       -0.95890000       4.50490000       0.02880000
H        0.32500000       2.85770000      -2.02300000
H        1.37330000       4.09030000      -1.24280000
H        2.22230000       1.81690000      -0.03150000
H        2.57100000       4.01250000       2.03420000
H        1.16340000       5.19790000       2.05960000
