16
Properties=species:S:1:pos:R:3 gdb_27679=T pbc="F F F"
C       -0.01920000       1.55840000       0.07570000
C        0.02390000       0.06460000       0.06320000
C        0.02170000      -0.73720000      -1.04810000
O        0.06840000      -2.07250000      -0.65280000
C        0.09770000      -2.08040000       0.69220000
N        0.21680000      -3.32620000       1.27540000
C        0.07150000      -0.80840000       1.19570000
C       -0.02120000      -0.46080000      -2.41940000
C       -0.05860000      -0.20360000      -3.59810000
H        0.86330000       1.97670000       0.57330000
H       -0.05600000       1.95430000      -0.94190000
H       -0.89820000       1.92610000       0.61740000
H       -0.17160000      -4.07040000       0.71160000
H       -0.11700000      -3.36330000       2.22750000
H        0.08650000      -0.52690000       2.23680000
H       -0.09190000       0.02130000      -4.63480000
