20
Properties=species:S:1:pos:R:3 gdb_22487=T pbc="F F F"
C        0.94430000       0.50050000      -1.12250000
C       -0.01790000       0.01210000      -0.02240000
C        0.72340000      -0.59280000       1.14490000
C        0.86300000      -2.09130000       1.24630000
C       -0.45390000      -2.78330000       1.66940000
C       -0.26220000      -4.27380000       1.83750000
O       -0.88220000      -5.12010000       1.24750000
N        1.27940000       0.07640000       2.08220000
O        1.10120000       1.46160000       1.91970000
H        1.56170000      -0.31850000      -1.50540000
H        0.38300000       0.91840000      -1.96330000
H        1.60730000       1.27470000      -0.73020000
H       -0.61400000       0.85660000       0.33450000
H       -0.70700000      -0.72960000      -0.43890000
H        1.18190000      -2.49230000       0.27550000
H        1.64720000      -2.31860000       1.97430000
H       -0.76540000      -2.37150000       2.63910000
H       -1.25800000      -2.61650000       0.94780000
H        0.53120000      -4.55200000       2.57090000
H        1.55460000       1.81430000       2.69240000
