16
Properties=species:S:1:pos:R:3 gdb_41682=T pbc="F F F"
C        0.16880000       1.26040000       0.32070000
C        1.42110000       1.95090000      -0.26390000
C        2.09460000       0.78700000      -0.93050000
O        3.14400000       0.96880000      -1.85810000
C        3.78670000      -0.23360000      -1.87390000
N        3.41500000      -1.14800000      -1.07110000
C        2.29950000      -0.60840000      -0.32500000
C        1.06920000      -0.28140000      -1.15570000
O       -0.09460000       0.08850000      -0.46930000
H        0.34580000       0.96460000       1.36290000
H       -0.72280000       1.89160000       0.29230000
H        1.15850000       2.70130000      -1.01720000
H        2.01920000       2.43520000       0.51250000
H        4.60260000      -0.30010000      -2.58230000
H        2.21680000      -0.88700000       0.72030000
H        0.88850000      -0.78660000      -2.09850000
