17
Properties=species:S:1:pos:R:3 gdb_19918=T pbc="F F F"
O       -0.14170000       1.26080000      -0.96550000
C        0.12400000       0.15450000      -0.11010000
C       -1.19680000      -0.59400000       0.02860000
C       -1.54190000      -2.02520000      -0.26980000
C       -0.64060000      -3.05610000       0.43650000
C        0.40490000      -2.52070000       1.33780000
N       -0.99410000      -2.53690000       1.80360000
C       -1.80120000      -1.45440000       1.11480000
H        0.67870000       1.74820000      -1.08640000
H        0.89920000      -0.49200000      -0.54490000
H        0.48150000       0.50090000       0.87290000
H       -1.98770000       0.05660000      -0.34460000
H       -2.24980000      -2.31770000      -1.03460000
H       -0.71900000      -4.11720000       0.22190000
H        1.00730000      -3.25970000       1.86080000
H        0.91880000      -1.58720000       1.16100000
H       -2.72990000      -1.18390000       1.60210000
