17
Properties=species:S:1:pos:R:3 gdb_27633=T pbc="F F F"
C        0.10180000       1.45860000      -0.04750000
C       -0.06390000      -0.01760000      -0.03380000
C       -1.13920000      -0.84140000      -0.07020000
C       -0.62910000      -2.19270000      -0.02800000
C       -1.37240000      -3.39460000      -0.04400000
C       -2.01540000      -4.41360000      -0.05830000
C        0.73600000      -2.07810000       0.03170000
C        1.82680000      -3.08130000       0.09490000
O        1.08450000      -0.76460000       0.02840000
H        0.69190000       1.78930000      -0.90980000
H       -0.87720000       1.93990000      -0.09820000
H        0.61310000       1.81450000       0.85420000
H       -2.17610000      -0.55020000      -0.12100000
H       -2.58010000      -5.31230000      -0.07090000
H        2.50650000      -2.99010000      -0.76020000
H        2.42750000      -2.96490000       1.00440000
H        1.39520000      -4.08410000       0.08990000
