17
Properties=species:S:1:pos:R:3 gdb_79037=T pbc="F F F"
O       -0.05100000       1.43870000      -0.09770000
C        0.00950000       0.03580000      -0.00150000
C        0.01560000      -0.62780000       1.39670000
C       -1.48920000      -0.18160000       1.58280000
C       -2.19910000      -1.29020000       2.35090000
O       -2.99280000      -2.16060000       1.51830000
C       -1.61150000      -2.48840000       1.76050000
C       -0.64820000      -1.89660000       0.73800000
C       -1.35750000      -0.65930000       0.09530000
H        0.84230000       1.78570000      -0.01370000
H        0.71000000      -0.38790000      -0.73430000
H        0.80720000      -0.61660000       2.14960000
H       -1.71580000       0.86090000       1.78870000
H       -2.51920000      -1.19210000       3.38280000
H       -1.42170000      -3.41990000       2.28330000
H       -0.04870000      -2.56000000       0.11380000
H       -2.14990000      -0.68280000      -0.65000000
