22
Properties=species:S:1:pos:R:3 gdb_95200=T pbc="F F F"
C        0.06140000       1.57540000       0.00330000
C        0.08020000       0.04810000      -0.03360000
C        0.61040000      -0.50860000      -1.37060000
O        1.84710000       0.13520000      -1.68470000
C        0.76890000      -2.02880000      -1.27590000
C        1.79310000      -2.40980000      -0.19590000
C        1.54080000      -1.68340000       1.12590000
C        2.16100000      -0.34720000       1.37190000
N        0.71740000      -0.46890000       1.18390000
H        1.07070000       1.98010000      -0.09780000
H       -0.54510000       1.97310000      -0.81680000
H       -0.36290000       1.91940000       0.95020000
H       -0.95950000      -0.30700000       0.01900000
H       -0.13850000      -0.26480000      -2.14170000
H        2.17980000      -0.24220000      -2.50520000
H       -0.21210000      -2.46240000      -1.04330000
H        1.07010000      -2.44180000      -2.24710000
H        1.76200000      -3.49020000      -0.02660000
H        2.79870000      -2.17990000      -0.56110000
H        1.38500000      -2.33580000       1.98330000
H        2.47340000      -0.05850000       2.37320000
H        2.75670000       0.06460000       0.56240000
