18
Properties=species:S:1:pos:R:3 gdb_89318=T pbc="F F F"
C        0.00670000       1.57680000       0.07330000
C       -0.05660000       0.08100000       0.04880000
C       -1.31740000      -0.78320000      -0.10160000
C       -0.71500000      -1.80330000       0.94580000
N       -0.52260000      -3.21000000       0.68010000
C        0.55850000      -0.93990000       0.99940000
N        1.12250000      -0.67870000      -0.32930000
C        1.39030000      -0.75870000       2.15020000
N        2.02220000      -0.60640000       3.10720000
H        0.99740000       1.91170000       0.38940000
H       -0.18800000       1.98400000      -0.92550000
H       -0.74180000       1.98910000       0.75680000
H       -2.23530000      -0.30770000       0.25170000
H       -1.48490000      -1.17150000      -1.11230000
H       -1.25630000      -1.71070000       1.89100000
H       -1.41100000      -3.70010000       0.66920000
H       -0.08880000      -3.36680000      -0.22430000
H        0.93930000      -1.43090000      -0.99140000
