15
Properties=species:S:1:pos:R:3 gdb_20993=T pbc="F F F"
C       -0.09560000       1.49210000       0.01060000
N        0.00980000       0.04890000       0.00220000
C       -0.02320000      -0.79750000      -1.08210000
N       -0.09670000      -0.31180000      -2.38760000
N       -0.07010000      -2.04510000      -0.70640000
N       -0.06190000      -2.05260000       0.68920000
C       -0.01030000      -0.80910000       1.07770000
N       -0.06830000      -0.33740000       2.38910000
H        0.88720000       1.97860000       0.00720000
H       -0.64830000       1.81060000      -0.87640000
H       -0.63750000       1.80110000       0.90750000
H        0.72550000       0.21520000      -2.66480000
H       -0.21380000      -1.09520000      -3.02050000
H       -0.17790000      -1.12750000       3.01500000
H        0.75730000       0.18650000       2.66210000
