21
Properties=species:S:1:pos:R:3 gdb_64042=T pbc="F F F"
C        0.11970000       1.50640000       0.02270000
C       -0.03960000      -0.02310000      -0.00870000
C       -1.53260000      -0.40140000       0.04780000
C        0.61100000      -0.57900000      -1.30600000
C        0.86730000      -2.06300000      -1.27700000
C        1.16520000      -2.70600000      -0.14670000
C        1.22370000      -1.97470000       1.14180000
O        2.04960000      -0.78180000       1.18750000
C        0.63480000      -0.62650000       1.21500000
H        1.17720000       1.78570000       0.05960000
H       -0.32380000       1.96340000      -0.86880000
H       -0.37570000       1.93830000       0.89940000
H       -2.08290000       0.07910000      -0.76800000
H       -1.67150000      -1.48320000      -0.03810000
H       -1.98700000      -0.07610000       0.99020000
H       -0.02340000      -0.31860000      -2.16100000
H        1.56600000      -0.06260000      -1.46620000
H        0.83710000      -2.60180000      -2.22010000
H        1.36560000      -3.77270000      -0.13670000
H        1.28490000      -2.57110000       2.04990000
H        0.23740000      -0.28530000       2.17390000
