14
Properties=species:S:1:pos:R:3 gdb_123334=T pbc="F F F"
C       -0.00960000      -1.19650000       0.19660000
C       -0.00050000      -0.00310000       0.06300000
C        0.02040000       1.44590000      -0.10820000
C        1.42600000       2.01070000      -0.05070000
N        2.06830000       1.96460000       1.12630000
C        3.29270000       2.46470000       1.11450000
C        3.83480000       2.99290000      -0.05870000
N        3.13940000       3.02180000      -1.19000000
N        1.90650000       2.52040000      -1.18770000
H       -0.02230000      -2.25140000       0.31680000
H       -0.41670000       1.72380000      -1.07150000
H       -0.57520000       1.91800000       0.68270000
H        3.85300000       2.45300000       2.04680000
H        4.83740000       3.40650000      -0.09810000
