17
Properties=species:S:1:pos:R:3 gdb_75647=T pbc="F F F"
C        0.42400000       1.28540000       0.02830000
N       -0.24120000      -0.00110000      -0.01070000
C       -0.13500000      -0.94710000      -1.07090000
O        0.17230000      -0.80080000      -2.21540000
C       -0.69690000      -2.06640000      -0.09090000
N       -0.13000000      -3.02350000       1.06880000
C        0.98540000      -1.98400000       1.18580000
C       -0.26400000      -1.10130000       0.96490000
C       -0.95340000      -2.07120000       1.99120000
H        1.40230000       1.22090000       0.52400000
H        0.57630000       1.61420000      -1.00300000
H       -0.18830000       2.02620000       0.55030000
H       -1.75890000      -2.24910000      -0.25880000
H        1.46930000      -1.97670000       2.16470000
H        1.71270000      -2.04100000       0.37110000
H       -2.03280000      -2.21190000       1.92620000
H       -0.59190000      -2.08350000       3.02250000
