20
Properties=species:S:1:pos:R:3 gdb_17542=T pbc="F F F"
C       -0.62620000       1.09750000       0.01350000
C        0.88070000       1.19260000      -0.00030000
C        0.21850000      -0.15570000      -0.00100000
C        0.25790000      -1.07440000       1.22430000
C       -0.39850000      -2.36430000       0.75160000
C       -1.70630000      -2.24900000       0.00640000
C       -0.41290000      -2.35650000      -0.76460000
C        0.23450000      -1.06170000      -1.23630000
H       -1.14500000       1.35680000       0.93120000
H       -1.16230000       1.36620000      -0.89150000
H        1.36310000       1.52620000      -0.91370000
H        1.38040000       1.51680000       0.90720000
H        1.29640000      -1.28230000       1.51510000
H       -0.23650000      -0.62460000       2.09330000
H       -0.20070000      -3.27650000       1.30380000
H       -2.35270000      -3.12000000       0.00810000
H       -2.23700000      -1.30260000       0.01640000
H       -0.22570000      -3.26280000      -1.32990000
H       -0.27620000      -0.60300000      -2.09100000
H        1.26730000      -1.26650000      -1.54890000
