17
Properties=species:S:1:pos:R:3 gdb_36139=T pbc="F F F"
C       -0.61890000      -0.12360000       1.48690000
C       -0.15440000       0.25390000       0.44480000
C        0.41760000       0.72430000      -0.81020000
C        1.56540000       1.69370000      -0.62220000
C        2.61130000       1.60330000       0.47260000
C        1.68150000       2.80250000       0.36890000
O        2.12410000       3.93860000      -0.33240000
C        2.61650000       3.47110000      -1.57360000
O        1.98320000       2.23520000      -1.85770000
H       -1.03920000      -0.46460000       2.40050000
H        0.76750000      -0.13170000      -1.40210000
H       -0.35310000       1.22220000      -1.41200000
H        2.40030000       0.91340000       1.28230000
H        3.66000000       1.70790000       0.21840000
H        0.95740000       3.03560000       1.13820000
H        2.37210000       4.19390000      -2.35860000
H        3.70860000       3.33160000      -1.52240000
