21
Properties=species:S:1:pos:R:3 gdb_26258=T pbc="F F F"
C        0.21610000       1.67180000      -0.06960000
C       -0.01870000       0.16630000       0.11950000
C        0.40820000      -0.62180000      -1.13650000
C        0.70990000      -0.33800000       1.33550000
N        1.89020000       0.08320000       1.74440000
C        2.19920000      -0.67400000       2.84780000
C        1.19600000      -1.56490000       3.10990000
N        0.24060000      -1.34940000       2.13590000
C       -1.02190000      -2.05430000       2.02060000
H        1.28430000       1.87780000      -0.17110000
H       -0.29970000       2.02910000      -0.96660000
H       -0.14970000       2.24040000       0.78990000
H       -1.09380000       0.00200000       0.27050000
H        1.47770000      -0.48250000      -1.32150000
H        0.22640000      -1.69570000      -1.02380000
H       -0.14310000      -0.27570000      -2.01710000
H        3.12210000      -0.53280000       3.38970000
H        1.05930000      -2.31190000       3.87470000
H       -1.87060000      -1.37690000       2.15860000
H       -1.11770000      -2.53970000       1.04480000
H       -1.06780000      -2.82390000       2.79250000
