19
Properties=species:S:1:pos:R:3 gdb_38171=T pbc="F F F"
C        0.33710000       1.55670000       0.47180000
C        1.57430000       1.57620000      -0.47930000
C        1.48340000       0.05420000      -0.46300000
O        2.02980000      -0.89230000      -1.35000000
C        2.43150000      -0.92390000       0.05650000
C        1.90330000      -2.01080000       0.91590000
C        0.64400000      -2.01220000       1.35910000
C       -0.41180000      -0.98780000       1.02150000
C        0.03260000       0.09090000       0.01790000
H        0.63640000       1.59620000       1.52290000
H       -0.44130000       2.30070000       0.29490000
H        1.32200000       1.98270000      -1.46340000
H        2.49590000       2.04300000      -0.12480000
H        3.47210000      -0.63770000       0.20110000
H        2.58510000      -2.80520000       1.20630000
H        0.31590000      -2.81910000       2.01140000
H       -1.28620000      -1.52630000       0.63420000
H       -0.76310000      -0.52260000       1.95400000
H       -0.64080000       0.11600000      -0.84490000
