16
Properties=species:S:1:pos:R:3 gdb_42741=T pbc="F F F"
O       -0.02520000       0.05110000      -0.02280000
C       -0.07090000       1.24530000       0.02240000
C       -1.25420000       2.19720000       0.04460000
C       -0.72080000       3.26120000      -0.95830000
N        0.34170000       3.56980000       0.08130000
C       -0.73340000       3.22070000       1.09760000
C        1.11620000       2.28290000       0.05040000
C        2.01240000       2.10940000       1.17620000
C        2.73830000       1.93810000       2.11840000
H       -2.24860000       1.75540000       0.02890000
H       -0.34420000       2.93790000      -1.93290000
H       -1.38660000       4.11850000      -1.07380000
H       -1.40290000       4.07150000       1.23760000
H       -0.36180000       2.86080000       2.05900000
H        1.67490000       2.22470000      -0.89060000
H        3.39000000       1.79220000       2.94420000
