14
Properties=species:S:1:pos:R:3 gdb_132377=T pbc="F F F"
N       -0.01610000       1.40220000       0.17790000
C        0.00210000       0.01710000       0.06660000
C       -1.19840000      -0.70790000       0.04540000
C       -1.14870000      -2.09080000      -0.00510000
F       -2.30180000      -2.76730000      -0.02600000
C        0.03990000      -2.80710000      -0.03870000
C        1.20900000      -2.05870000      -0.01830000
F        2.37970000      -2.70360000      -0.05220000
C        1.22160000      -0.67500000       0.03180000
H        0.81300000       1.87510000      -0.14870000
H       -0.86130000       1.85230000      -0.13920000
H       -2.15990000      -0.20920000       0.07360000
H        0.05440000      -3.88700000      -0.07970000
H        2.16950000      -0.15030000       0.04930000
