20
Properties=species:S:1:pos:R:3 gdb_32988=T pbc="F F F"
C        0.00250000       1.57240000       0.06970000
C       -0.02950000       0.04730000       0.18850000
C       -1.41900000      -0.54600000      -0.10870000
C       -1.42630000      -2.05340000      -0.03620000
N       -0.79860000      -2.69920000      -1.03110000
C       -0.76090000      -4.03150000      -0.99200000
C       -1.33560000      -4.79490000       0.02080000
C       -1.98650000      -4.12600000       1.05130000
C       -2.03240000      -2.73680000       1.02200000
H        1.00090000       1.96610000       0.28430000
H       -0.27370000       1.89650000      -0.93990000
H       -0.69780000       2.04200000       0.76990000
H        0.69000000      -0.40200000      -0.50470000
H        0.28160000      -0.25410000       1.19700000
H       -2.15500000      -0.13510000       0.59210000
H       -1.72430000      -0.24420000      -1.11750000
H       -0.24550000      -4.51770000      -1.81790000
H       -1.27390000      -5.87700000      -0.00370000
H       -2.45270000      -4.67550000       1.86290000
H       -2.53350000      -2.18150000       1.80780000
