21
Properties=species:S:1:pos:R:3 gdb_38429=T pbc="F F F"
C        0.25890000       1.61090000       0.12700000
C        1.48570000       0.75050000       0.03790000
C        1.65780000      -0.04110000       1.33840000
C        0.24210000      -0.71250000       1.10620000
C        0.27950000      -2.24160000       0.85000000
C       -0.26430000      -2.90280000       2.14020000
C       -1.03830000      -1.77690000       2.78480000
C       -0.77160000      -0.60160000       2.21690000
C        0.09810000       0.14370000      -0.16590000
H       -0.05230000       2.03020000       1.08130000
H        0.08490000       2.26790000      -0.71950000
H        2.26270000       0.93620000      -0.69350000
H        2.46410000      -0.77780000       1.30750000
H        1.76920000       0.56040000       2.24730000
H       -0.39890000      -2.47140000       0.02010000
H        1.27150000      -2.60060000       0.56270000
H       -0.88210000      -3.78320000       1.92950000
H        0.54320000      -3.24780000       2.80150000
H       -1.69920000      -1.92880000       3.63170000
H       -1.18420000       0.35160000       2.52960000
H       -0.37200000      -0.20290000      -1.08030000
