19
Properties=species:S:1:pos:R:3 gdb_76906=T pbc="F F F"
O        0.26650000       1.26790000      -0.42280000
C        0.05850000      -0.08400000      -0.10590000
C        0.17460000      -0.39460000       1.42850000
O        0.40330000       0.75490000       2.22150000
C       -1.31810000      -0.86950000       1.44420000
O       -2.23720000      -0.03780000       2.10760000
C       -2.59680000       1.03970000       1.24140000
C       -2.51120000       0.48380000      -0.19160000
C       -1.42360000      -0.59200000      -0.08860000
H        0.31200000       1.72730000       0.42970000
H        0.71430000      -0.69300000      -0.73760000
H        0.88260000      -1.19490000       1.67040000
H        1.34510000       0.81460000       2.40810000
H       -1.46010000      -1.88890000       1.81130000
H       -3.60090000       1.36670000       1.52510000
H       -1.90710000       1.88320000       1.37900000
H       -3.46140000       0.02790000      -0.48290000
H       -2.25400000       1.25880000      -0.91630000
H       -1.60940000      -1.45150000      -0.73420000
