13
Properties=species:S:1:pos:R:3 gdb_124921=T pbc="F F F"
C        0.05690000       1.48560000       0.01380000
C       -0.05500000       0.00820000      -0.06040000
C       -1.12360000      -0.84480000       0.05220000
C       -2.47750000      -0.51810000       0.28200000
N       -3.58450000      -0.23570000       0.47090000
C       -0.52990000      -2.13670000      -0.11970000
O       -1.20060000      -3.28790000      -0.08710000
N        0.76060000      -2.06840000      -0.31520000
O        1.05850000      -0.69420000      -0.27620000
H        0.73220000       1.77980000       0.82330000
H        0.46210000       1.88770000      -0.92010000
H       -0.92550000       1.92510000       0.19310000
H       -0.57240000      -4.00950000      -0.22940000
