18
Properties=species:S:1:pos:R:3 gdb_52723=T pbc="F F F"
C       -0.08650000       1.48870000      -0.00300000
C       -0.01450000       0.03510000       0.00290000
C        0.05100000      -1.16750000       0.02540000
C        0.09590000      -2.62900000       0.00210000
O       -1.20490000      -3.20850000       0.11730000
C        0.82450000      -3.14060000      -1.25720000
C        0.88440000      -4.67940000      -1.27270000
C        1.49910000      -5.20220000      -2.48910000
N        1.98710000      -5.59940000      -3.45860000
H        0.73550000       1.92470000       0.57490000
H       -0.02740000       1.88810000      -1.02110000
H       -1.02510000       1.83870000       0.44010000
H        0.63720000      -2.99080000       0.88670000
H       -1.79740000      -2.69790000      -0.44580000
H        0.29760000      -2.77990000      -2.14690000
H        1.83370000      -2.71900000      -1.28850000
H        1.45160000      -5.04720000      -0.40910000
H       -0.12910000      -5.08080000      -1.17770000
