17
Properties=species:S:1:pos:R:3 gdb_53217=T pbc="F F F"
C        0.18670000       1.58040000      -0.20020000
C        0.10470000       0.13560000      -0.05330000
C        0.04190000      -1.05990000       0.07810000
C       -0.02580000      -2.49640000       0.21570000
O       -0.04840000      -2.94020000       1.62840000
C       -1.26230000      -3.55890000       1.47030000
O       -1.89390000      -4.13730000       2.29450000
C       -1.39540000      -3.20910000      -0.01320000
C       -2.61590000      -2.39880000      -0.42420000
H        1.12850000       1.87920000      -0.67230000
H       -0.63460000       1.96420000      -0.81470000
H        0.13080000       2.07370000       0.77610000
H        0.81380000      -2.98320000      -0.28800000
H       -1.28870000      -4.10080000      -0.63780000
H       -2.70990000      -1.49070000       0.17620000
H       -2.55220000      -2.10650000      -1.47620000
H       -3.51990000      -2.99860000      -0.28720000
