15
Properties=species:S:1:pos:R:3 gdb_19315=T pbc="F F F"
C       -0.27980000       1.31430000      -0.32220000
N        0.98100000       1.26180000       0.41970000
C        0.26020000      -0.00410000       0.13130000
C       -0.30790000      -0.71420000       1.24190000
C       -0.80060000      -1.32230000       2.15860000
C       -1.36690000      -2.06530000       3.24960000
C       -1.86570000      -1.39710000       4.46830000
O       -2.77510000      -1.91240000       3.50580000
H       -1.10960000       1.75440000       0.22130000
H       -0.26530000       1.52020000      -1.38930000
H        1.76710000       1.34560000      -0.22030000
H        0.67390000      -0.63880000      -0.64960000
H       -1.01640000      -3.09230000       3.34800000
H       -1.82640000      -1.93000000       5.41770000
H       -1.81030000      -0.31210000       4.53120000
