15
Properties=species:S:1:pos:R:3 gdb_17326=T pbc="F F F"
O        0.09540000       1.44360000      -0.16990000
C       -0.08050000       0.06240000      -0.00440000
C       -0.49550000      -0.72520000       1.22540000
N       -1.60670000      -0.22760000       2.12010000
C       -2.09900000       1.10820000       1.69060000
C       -2.47500000      -0.08550000       0.90500000
C       -1.38130000      -0.65910000      -0.02230000
O       -1.68180000      -1.66330000      -0.92280000
H        0.91400000       1.68940000       0.27610000
H        0.65420000      -0.53480000      -0.55240000
H        0.12680000      -1.51600000       1.62700000
H       -2.85050000       1.48360000       2.38100000
H       -1.41860000       1.84240000       1.28660000
H       -3.47020000      -0.51910000       0.89370000
H       -1.85990000      -1.25760000      -1.77920000
