16
Properties=species:S:1:pos:R:3 gdb_7124=T pbc="F F F"
C       -0.54220000       1.21990000       0.67050000
O       -0.78880000      -0.16860000       0.61090000
C       -0.70110000      -0.68880000      -0.68940000
C       -1.03520000      -2.17880000      -0.70310000
O       -0.81890000      -2.83790000      -1.69250000
C       -1.66370000      -2.76070000       0.55290000
C       -1.91590000      -4.25050000       0.44210000
O       -2.95610000      -4.77520000       0.74270000
H       -0.63770000       1.52140000       1.71560000
H        0.47010000       1.46680000       0.31680000
H       -1.26760000       1.78510000       0.06580000
H       -1.40800000      -0.18790000      -1.37460000
H        0.30420000      -0.56180000      -1.12190000
H       -0.98460000      -2.56230000       1.39410000
H       -2.59390000      -2.23500000       0.79210000
H       -1.05180000      -4.84180000       0.07510000
