15
Properties=species:S:1:pos:R:3 gdb_123647=T pbc="F F F"
C       -0.06240000       1.44960000       0.02200000
C        1.41790000       1.85080000      -0.03370000
N        2.18550000       1.42980000       1.14790000
C        2.26440000       0.61590000      -0.09530000
C        1.29650000      -0.50130000      -0.06500000
N        1.26820000      -1.82010000      -0.06370000
C       -0.07390000      -2.06490000       0.03540000
N       -0.86010000      -0.99220000       0.09730000
N        0.04860000      -0.00210000       0.01670000
H       -0.55410000       1.80330000       0.93200000
H       -0.61960000       1.80270000      -0.85140000
H        1.69150000       2.75780000      -0.55970000
H        3.02480000       2.00130000       1.22370000
H        3.19010000       0.55380000      -0.65240000
H       -0.48510000      -3.06300000       0.06110000
