16
Properties=species:S:1:pos:R:3 gdb_125444=T pbc="F F F"
C        0.11340000       1.45930000       0.02070000
C        0.06800000      -0.03300000      -0.01080000
N        0.07160000      -0.65770000      -1.14170000
C        0.01790000      -2.04310000      -1.11960000
N        0.10700000      -2.63490000      -2.36360000
N       -0.06710000      -2.79130000      -0.06240000
N       -0.05530000      -2.10720000       1.12040000
C        0.01760000      -0.74380000       1.28590000
N        0.03560000      -0.08410000       2.39150000
H        0.98830000       1.79260000       0.58800000
H        0.14230000       1.85540000      -0.99430000
H       -0.75470000       1.84860000       0.56200000
H       -0.22680000      -2.05280000      -3.11630000
H       -0.20350000      -3.59390000      -2.40000000
H       -0.11240000      -2.70340000       1.93150000
H       -0.00730000      -0.70440000       3.20230000
