19
Properties=species:S:1:pos:R:3 gdb_103029=T pbc="F F F"
C        0.09380000       1.35910000       0.11100000
O       -0.14060000      -0.01390000      -0.14530000
C        0.60910000      -0.55330000      -1.20760000
C        0.22010000       0.06020000      -2.47670000
C       -0.12880000       0.60010000      -3.49350000
C        2.14200000      -0.84670000      -0.96580000
C        1.68950000      -1.90720000       0.08260000
C        0.74620000      -2.10750000      -1.14220000
C        2.01110000      -1.96630000      -2.03730000
H        1.13880000       1.54540000       0.39710000
H       -0.14990000       1.98090000      -0.75980000
H       -0.55620000       1.63690000       0.94360000
H       -0.43650000       1.06510000      -4.39750000
H        2.94010000      -0.10900000      -0.87580000
H        2.39920000      -2.71690000       0.26620000
H        1.23470000      -1.54160000       1.00050000
H       -0.07370000      -2.81790000      -1.24980000
H        1.86280000      -1.65820000      -3.07270000
H        2.73540000      -2.77870000      -1.95470000
