13
Properties=species:S:1:pos:R:3 gdb_129942=T pbc="F F F"
N        0.04560000       1.42630000       0.16130000
C        0.02370000       0.03660000       0.03970000
C       -1.05410000      -0.81610000      -0.00150000
O       -0.69310000      -2.15430000      -0.03040000
C        0.65670000      -2.13290000      -0.01690000
C        1.13910000      -0.85830000       0.02950000
O        2.47880000      -0.86000000       0.03590000
N        2.89000000      -2.21600000      -0.00880000
C        1.79850000      -2.95740000      -0.03910000
H        0.82800000       1.85300000      -0.31690000
H       -0.81710000       1.86980000      -0.12410000
H       -2.11490000      -0.62720000      -0.00320000
H        1.90260000      -4.03130000      -0.07460000
