18
Properties=species:S:1:pos:R:3 gdb_59331=T pbc="F F F"
C       -0.00920000       1.53540000      -0.04850000
C        0.00320000       0.01400000       0.03630000
O        0.67500000      -0.46250000       1.19670000
C       -1.42040000      -0.58350000       0.00460000
O       -2.10690000      -0.17770000      -1.18230000
C       -2.51880000      -1.27760000      -1.89050000
N       -3.14760000      -1.12230000      -2.97920000
C       -2.08480000      -2.47250000      -1.14140000
C       -1.44860000      -2.08350000      -0.03740000
H        1.01340000       1.92200000      -0.04120000
H       -0.51120000       1.86580000      -0.96070000
H       -0.54850000       1.96600000       0.80570000
H        0.55630000      -0.40020000      -0.81430000
H        0.39320000       0.07720000       1.94350000
H       -1.97540000      -0.19460000       0.87400000
H       -3.38060000      -2.03040000      -3.37680000
H       -2.27360000      -3.48050000      -1.48390000
H       -0.98930000      -2.69430000       0.72660000
