13
Properties=species:S:1:pos:R:3 gdb_44196=T pbc="F F F"
O        0.16760000       0.23400000      -0.82650000
C        0.10840000       1.25430000      -0.23300000
O       -0.99340000       1.78490000       0.43770000
C       -0.28440000       2.99750000       0.78330000
C        0.43520000       2.90370000       2.16380000
N        1.58020000       2.20290000       1.50580000
C        1.00860000       2.44410000       0.15240000
C        0.76920000       4.21040000       2.71990000
N        1.05790000       5.25010000       3.13500000
H       -0.83150000       3.89690000       0.51460000
H       -0.08150000       2.29510000       2.91180000
H        2.47860000       2.64290000       1.66380000
H        1.63390000       2.91650000      -0.60260000
