18
Properties=species:S:1:pos:R:3 gdb_117057=T pbc="F F F"
C       -0.21010000       1.00220000      -0.41920000
C       -0.67380000      -0.44430000      -0.34060000
O       -0.00880000      -1.27420000      -1.31920000
C        1.20480000      -1.74860000      -1.00400000
N        1.81080000      -1.51340000       0.08290000
C        1.76630000      -2.61950000      -2.11690000
O        2.85300000      -3.14050000      -1.98570000
C        0.96050000      -2.82790000      -3.38110000
O        1.63370000      -3.64890000      -4.28730000
H        0.84360000       1.08660000      -0.14610000
H       -0.35270000       1.40180000      -1.42740000
H       -0.79610000       1.61090000       0.27680000
H       -0.49270000      -0.86430000       0.65180000
H       -1.73380000      -0.53670000      -0.58810000
H        2.70410000      -2.00890000       0.06890000
H       -0.01660000      -3.24950000      -3.09560000
H        0.74110000      -1.83820000      -3.81250000
H        2.47020000      -3.88570000      -3.85890000
