17
Properties=species:S:1:pos:R:3 gdb_37370=T pbc="F F F"
C       -0.00350000       1.38740000       0.26410000
C        1.38760000       2.01030000      -0.02560000
C        2.12380000       1.26230000      -1.14630000
O        2.08230000      -0.13570000      -0.79090000
C        0.73330000      -0.47920000      -1.07200000
O       -0.12060000      -0.00820000      -0.07130000
C        0.50930000       0.14690000      -2.47430000
O       -0.00070000       1.48470000      -2.46550000
C        1.42100000       1.28800000      -2.51540000
H       -0.21340000       1.44050000       1.33700000
H       -0.77940000       1.94100000      -0.26650000
H        1.26700000       3.07140000      -0.26600000
H        2.01990000       1.93950000       0.86420000
H        3.17140000       1.56240000      -1.21760000
H        0.64280000      -1.56720000      -1.07020000
H        0.23610000      -0.46800000      -3.32640000
H        1.92130000       1.65260000      -3.40700000
