18
Properties=species:S:1:pos:R:3 gdb_84579=T pbc="F F F"
C       -0.23300000       1.55930000      -0.14660000
C        0.03780000       0.05730000      -0.05730000
N        0.89640000      -0.35680000      -1.19300000
C        1.95960000      -0.86260000      -0.71720000
N        2.04540000      -0.99650000       0.68080000
C        3.08190000      -0.40410000       1.42600000
N        2.75070000       0.38300000       2.36670000
C        1.27780000       0.49300000       2.35170000
C        0.77130000      -0.46050000       1.23030000
H        0.69350000       2.13610000      -0.06380000
H       -0.68340000       1.78860000      -1.11550000
H       -0.91940000       1.88790000       0.64010000
H       -0.91650000      -0.47050000      -0.15260000
H        2.79210000      -1.20220000      -1.32660000
H        4.11050000      -0.64560000       1.17540000
H        0.88200000       0.19790000       3.32740000
H        1.00340000       1.54210000       2.19990000
H        0.20150000      -1.28510000       1.66570000
