21
Properties=species:S:1:pos:R:3 gdb_115547=T pbc="F F F"
C       -0.40290000       1.54050000      -0.01540000
O       -0.44210000       0.27310000       0.60280000
C       -1.30380000      -0.62840000      -0.02910000
C       -0.85980000      -1.31400000      -1.35040000
C       -1.40700000      -2.65090000      -0.78430000
C       -1.38830000      -2.03260000       0.66070000
C       -0.10680000      -2.39030000       1.43030000
C       -2.56990000      -2.26390000       1.47480000
C       -3.55610000      -2.45410000       2.13720000
H        0.27460000       2.16630000       0.57020000
H       -0.02860000       1.48390000      -1.04840000
H       -1.39780000       2.01200000      -0.03410000
H       -2.30980000      -0.19500000      -0.13130000
H       -1.29380000      -0.94660000      -2.28220000
H        0.22950000      -1.31640000      -1.44170000
H       -2.42390000      -2.86320000      -1.11860000
H       -0.79400000      -3.54400000      -0.92200000
H        0.77880000      -2.24080000       0.80710000
H       -0.00340000      -1.76360000       2.31840000
H       -0.14220000      -3.43810000       1.74200000
H       -4.42440000      -2.62110000       2.72480000
