17
Properties=species:S:1:pos:R:3 gdb_114723=T pbc="F F F"
C        0.46430000       1.10060000       0.35560000
O        0.43070000      -0.28720000       0.05370000
C        0.51770000      -0.56600000      -1.31210000
O        1.79260000      -0.28050000      -1.85920000
C        2.55140000      -1.47200000      -1.94240000
C        2.74560000      -2.25590000      -0.69530000
C        1.66700000      -2.67510000      -1.71430000
C        0.31620000      -2.09840000      -1.48270000
O       -0.75100000      -2.65110000      -1.49640000
H        1.41540000       1.55230000       0.05140000
H       -0.35910000       1.63110000      -0.14360000
H        0.34530000       1.19200000       1.43680000
H       -0.22310000       0.01490000      -1.87800000
H        3.29940000      -1.42660000      -2.72390000
H        3.59990000      -2.92110000      -0.63780000
H        2.42050000      -1.82080000       0.24170000
H        1.75530000      -3.61700000      -2.23810000
