23
Properties=species:S:1:pos:R:3 gdb_76207=T pbc="F F F"
C        0.61590000       1.48080000      -0.72600000
C        0.03940000       0.07900000      -0.55500000
C       -1.39150000      -0.00190000      -1.07160000
O        0.88170000      -0.91930000      -1.20110000
C        1.24310000      -1.55450000       0.05970000
C        0.83400000      -3.02200000       0.06490000
C        2.73070000      -1.38890000       0.35390000
C        0.28960000      -0.59130000       0.83000000
O        0.77480000       0.17010000       1.90330000
H        1.66300000       1.53570000      -0.41280000
H        0.58030000       1.76810000      -1.78150000
H        0.04290000       2.21260000      -0.14810000
H       -1.42900000       0.24890000      -2.13670000
H       -1.79270000      -1.01150000      -0.94750000
H       -2.03890000       0.69740000      -0.53110000
H        1.39080000      -3.57750000      -0.69680000
H        1.03780000      -3.47780000       1.04000000
H       -0.23270000      -3.12850000      -0.15070000
H        3.04760000      -0.34320000       0.29430000
H        2.97700000      -1.76900000       1.35030000
H        3.31680000      -1.94540000      -0.38400000
H       -0.59770000      -1.10010000       1.21540000
H        1.56250000       0.64310000       1.61740000
