20
Properties=species:S:1:pos:R:3 gdb_67628=T pbc="F F F"
C       -0.04950000       1.50550000       0.05190000
C       -0.02260000       0.01310000      -0.04900000
C        0.81440000      -0.83460000      -1.05490000
C        1.06300000      -2.12710000      -0.31260000
C        0.85310000      -1.87320000       1.16750000
N       -0.18900000      -0.83880000       1.15020000
C       -1.07620000      -1.04780000      -0.01640000
C       -2.56490000      -1.02760000       0.12970000
C       -0.25340000      -1.90990000      -1.02190000
H        0.92350000       1.89500000       0.37550000
H       -0.28650000       1.96210000      -0.91540000
H       -0.79870000       1.82790000       0.77960000
H        1.39800000      -0.46780000      -1.88750000
H        1.77630000      -2.84730000      -0.69530000
H        0.49380000      -2.75490000       1.70880000
H        1.74840000      -1.49150000       1.67000000
H       -2.87030000      -0.25840000       0.84370000
H       -3.05270000      -0.82340000      -0.82980000
H       -2.93690000      -1.99260000       0.49490000
H       -0.64130000      -2.52130000      -1.82450000
