14
Properties=species:S:1:pos:R:3 gdb_129983=T pbc="F F F"
N       -0.17440000       1.38750000       0.21690000
C       -0.06560000       0.03700000       0.13780000
N       -1.03540000      -0.83340000       0.07160000
C       -0.32710000      -2.01510000       0.07730000
N       -1.05020000      -3.18500000       0.01950000
C       -0.59740000      -4.49010000       0.00530000
N        0.62960000      -4.80780000       0.04110000
N        0.98010000      -1.91810000       0.13620000
O        1.15450000      -0.49130000       0.17740000
H        0.64250000       1.92080000      -0.03430000
H       -1.05850000       1.76900000      -0.07790000
H       -2.04500000      -3.03370000      -0.01230000
H       -1.44350000      -5.18670000      -0.04120000
H        0.72910000      -5.82060000       0.02110000
