18
Properties=species:S:1:pos:R:3 gdb_45442=T pbc="F F F"
O       -0.01770000      -0.01050000       0.05780000
C        0.01850000       1.18530000       0.01370000
O       -1.12280000       1.92950000       0.01010000
C       -0.87580000       3.35860000       0.01460000
C       -0.10770000       3.71220000       1.29400000
C        1.23190000       2.92630000       1.28530000
C        1.26010000       2.07020000      -0.00400000
N        1.17930000       2.89970000      -1.21870000
C       -0.06370000       3.69840000      -1.23610000
H       -1.86300000       3.82210000      -0.01370000
H        0.05390000       4.79390000       1.33370000
H       -0.71980000       3.44360000       2.15880000
H        2.09470000       3.60050000       1.27580000
H        1.33020000       2.29230000       2.17200000
H        2.14170000       1.43150000      -0.05790000
H        1.99550000       3.49780000      -1.26990000
H       -0.65440000       3.45890000      -2.12910000
H        0.14060000       4.77590000      -1.25470000
