16
Properties=species:S:1:pos:R:3 gdb_66868=T pbc="F F F"
O        0.28610000       1.27760000       0.16000000
C       -0.09860000      -0.07030000       0.10480000
C        0.24220000      -0.89640000       1.31950000
C        0.79260000      -2.07490000       0.98380000
C        0.90230000      -2.25240000      -0.46790000
C        1.39730000      -3.31670000      -1.10530000
N       -1.17350000      -1.12960000      -1.42490000
C       -1.47710000      -0.30950000      -0.48540000
C        0.30350000      -1.01660000      -1.09230000
H        1.17330000       1.31840000       0.53490000
H        0.03410000      -0.55350000       2.32680000
H        1.09820000      -2.84380000       1.68550000
H        1.43320000      -3.36630000      -2.18780000
H        1.76890000      -4.17990000      -0.56220000
H       -2.47540000       0.03660000      -0.21760000
H        0.86860000      -0.57150000      -1.91260000
