22
Properties=species:S:1:pos:R:3 gdb_6213=T pbc="F F F"
C       -0.01690000       1.61370000       0.00910000
C        0.02100000       0.08120000       0.03340000
C        0.76260000      -0.54800000      -1.17670000
C        1.52880000      -1.79620000      -0.64150000
C        0.73220000      -3.09540000      -0.88690000
C        2.92790000      -1.92840000      -1.26370000
C        1.58560000      -1.49670000       0.84710000
C        0.77410000      -0.50660000       1.20800000
H        0.99740000       2.02800000      -0.00270000
H       -0.54140000       1.98080000      -0.87960000
H       -0.53260000       2.01380000       0.88890000
H       -1.02030000      -0.27530000       0.06440000
H        0.08890000      -0.79720000      -2.00240000
H        1.48590000       0.18040000      -1.56220000
H        0.67080000      -3.31830000      -1.95840000
H        1.20980000      -3.95050000      -0.39560000
H       -0.28710000      -3.01430000      -0.49630000
H        3.53080000      -1.03520000      -1.07080000
H        3.46470000      -2.79170000      -0.85400000
H        2.86290000      -2.06510000      -2.34930000
H        2.20060000      -2.08470000       1.52230000
H        0.62430000      -0.15560000       2.22450000
