18
Properties=species:S:1:pos:R:3 gdb_108092=T pbc="F F F"
C       -0.25710000       1.18790000       0.08470000
O        0.31810000      -0.10410000      -0.04040000
C        0.90330000      -0.56070000       1.10980000
C        2.22290000      -0.13670000       1.75150000
C        2.03530000      -1.39730000       2.63680000
N        0.85670000      -1.01780000       3.49090000
C        0.04490000      -1.17910000       2.26850000
C        1.06030000      -1.99990000       1.50200000
O        1.05050000      -3.11340000       0.70900000
H        0.50010000       1.94520000       0.32830000
H       -0.70510000       1.42970000      -0.88140000
H       -1.03290000       1.20660000       0.86210000
H        3.05300000      -0.24830000       1.04930000
H        2.28510000       0.81270000       2.29010000
H        2.88040000      -1.87890000       3.12380000
H        0.65110000      -1.80530000       4.10590000
H       -1.03700000      -1.14680000       2.23470000
H        0.74660000      -3.86430000       1.23180000
