22
Properties=species:S:1:pos:R:3 gdb_60608=T pbc="F F F"
C       -1.76840000       1.42200000      -1.26590000
C       -1.58110000       0.00170000      -0.68210000
C       -0.78320000      -0.84050000      -1.67920000
C        0.67550000      -1.13630000      -1.58690000
N       -0.31260000      -2.20740000      -1.46600000
C       -0.47380000      -2.85260000      -0.17270000
C       -1.00770000       0.18530000       0.72920000
C       -1.98840000      -0.00260000       1.87260000
O        0.13770000       0.52670000       0.92490000
H       -0.79840000       1.91730000      -1.35940000
H       -2.23330000       1.37000000      -2.25460000
H       -2.40780000       2.03790000      -0.62550000
H       -2.57500000      -0.45470000      -0.58470000
H       -1.19370000      -0.71170000      -2.68170000
H        1.28580000      -1.15720000      -2.48690000
H        1.18620000      -0.80240000      -0.68890000
H       -0.24260000      -2.21810000       0.69550000
H       -1.50070000      -3.22210000      -0.07500000
H        0.19510000      -3.71840000      -0.13080000
H       -2.88200000       0.61220000       1.71460000
H       -2.32590000      -1.04490000       1.90600000
H       -1.51700000       0.26230000       2.81960000
