19
Properties=species:S:1:pos:R:3 gdb_87687=T pbc="F F F"
C        0.01990000       1.47380000      -0.30380000
C        0.18540000      -0.02650000      -0.21730000
C        1.55580000      -0.64570000      -0.07970000
C        0.61470000      -0.63980000       1.09300000
O        0.83700000       0.11670000       2.28680000
C        0.27330000      -0.92820000       3.13530000
C       -0.93020000      -0.47510000       3.93850000
C        0.01580000      -1.76870000       1.86780000
O       -0.46520000      -2.83520000       1.61900000
H        0.72440000       1.98280000       0.35910000
H        0.19050000       1.82620000      -1.32630000
H       -0.98990000       1.77400000      -0.00640000
H       -0.54600000      -0.61530000      -0.76610000
H        1.76360000      -1.59800000      -0.55610000
H        2.40250000       0.02870000       0.00280000
H        1.04950000      -1.35850000       3.78140000
H       -1.70430000      -0.06360000       3.28470000
H       -1.35000000      -1.32350000       4.48800000
H       -0.63870000       0.29490000       4.65870000
