18
Properties=species:S:1:pos:R:3 gdb_109476=T pbc="F F F"
C       -0.23890000       1.62570000      -0.09850000
C       -0.00700000       0.12050000       0.04720000
C        0.79260000      -0.49590000      -1.11480000
C        2.28270000      -0.23360000      -1.12850000
N        2.84330000       0.87810000      -0.93080000
O        2.97570000      -1.39220000      -1.39520000
C        2.11810000      -2.52790000      -1.47220000
C        0.70980000      -2.01690000      -1.17500000
O       -0.26300000      -2.70240000      -1.01340000
H        0.71130000       2.16020000      -0.15900000
H       -0.81360000       1.84660000      -1.00530000
H       -0.80500000       2.00920000       0.75580000
H        0.51920000      -0.08900000       0.98550000
H       -0.96190000      -0.41450000       0.09350000
H        0.37350000      -0.12750000      -2.06380000
H        3.85930000       0.78450000      -0.98370000
H        2.16870000      -2.97330000      -2.47300000
H        2.42480000      -3.28230000      -0.73990000
