14
Properties=species:S:1:pos:R:3 gdb_132542=T pbc="F F F"
C       -0.01000000       1.51870000       0.00710000
C       -0.00140000       0.01220000       0.00760000
C       -0.09030000      -0.72050000      -1.17210000
N       -0.08690000      -2.06010000      -1.22560000
C        0.00550000      -2.71850000      -0.10290000
F        0.00910000      -4.04520000      -0.15240000
C        0.10050000      -2.09660000       1.14590000
F        0.19200000      -2.83200000       2.25110000
C        0.09690000      -0.71930000       1.19970000
H        0.90680000       1.92400000       0.44890000
H       -0.09240000       1.90950000      -1.01020000
H       -0.85100000       1.91390000       0.58730000
H       -0.16870000      -0.20910000      -2.12770000
H        0.17030000      -0.22880000       2.16470000
