18
Properties=species:S:1:pos:R:3 gdb_70706=T pbc="F F F"
C       -0.09080000       1.52820000       0.04120000
C        0.12850000       0.04120000      -0.02960000
O       -0.74510000      -0.78590000       0.77400000
C        0.63480000      -0.74670000       1.12510000
C        1.40630000      -2.04650000       0.92290000
N        1.71970000      -2.38860000      -0.46550000
C        0.63670000      -2.05730000      -1.40100000
C        0.36750000      -0.55510000      -1.39920000
O        0.40040000       0.13540000      -2.39290000
H        0.78470000       2.06190000      -0.33900000
H       -0.94440000       1.81690000      -0.57790000
H       -0.27960000       1.83570000       1.07230000
H        0.83570000      -0.19980000       2.04870000
H        2.34390000      -2.00570000       1.48610000
H        0.80370000      -2.85380000       1.36130000
H        2.55820000      -1.89260000      -0.75170000
H        0.91080000      -2.36060000      -2.41400000
H       -0.26580000      -2.60010000      -1.09960000
