19
Properties=species:S:1:pos:R:3 gdb_85675=T pbc="F F F"
C       -1.01020000       1.11680000      -0.00740000
C        0.00810000      -0.00640000      -0.04010000
N        1.31090000       0.31420000      -0.68090000
C        2.02280000      -0.57010000       0.26290000
C        3.33870000      -0.11410000       0.70050000
N        4.37230000       0.23330000       1.08560000
C        0.78470000      -0.43470000       1.23970000
C        0.95540000       0.63410000       2.30580000
O        0.29530000      -1.64090000       1.76090000
H       -0.57860000       2.03570000       0.39670000
H       -1.37150000       1.33220000      -1.01850000
H       -1.87590000       0.83200000       0.59980000
H       -0.45150000      -0.91790000      -0.45070000
H        1.40210000       0.05670000      -1.65780000
H        2.09580000      -1.61970000      -0.05260000
H        1.32640000       1.56630000       1.87410000
H        0.00080000       0.82800000       2.80340000
H        1.68390000       0.30960000       3.05830000
H        0.66520000      -1.77200000       2.64070000
