17
Properties=species:S:1:pos:R:3 gdb_10272=T pbc="F F F"
C        0.06320000       1.44670000      -0.09570000
N        0.12470000       0.00260000      -0.07730000
C        0.56710000      -0.63720000       0.93570000
C        1.10890000       0.03440000       2.11460000
N        1.52930000       0.63250000       3.01110000
N        0.52340000      -2.01060000       1.01260000
C        0.00110000      -2.72500000      -0.13940000
C        1.40080000      -2.75970000       1.89520000
H        0.58430000       1.81380000      -0.98740000
H       -0.98240000       1.76440000      -0.19080000
H        0.49330000       1.93980000       0.78660000
H        0.74030000      -2.80000000      -0.94990000
H       -0.28250000      -3.73340000       0.17330000
H       -0.86920000      -2.19790000      -0.53020000
H        1.66640000      -2.16090000       2.76730000
H        0.88480000      -3.66020000       2.24240000
H        2.32890000      -3.06880000       1.39150000
