24
Properties=species:S:1:pos:R:3 gdb_100806=T pbc="F F F"
C       -0.04450000       1.60510000       0.05730000
C       -0.03240000       0.07570000      -0.05340000
C        0.75240000      -0.48530000      -1.25990000
C        2.21740000      -0.01740000      -1.22000000
C        0.63860000      -2.03320000      -1.33980000
C       -0.81120000      -2.54230000      -1.30850000
C        1.34560000      -2.57020000      -2.61420000
C        1.36550000      -4.02960000      -2.68830000
N        1.38290000      -5.18460000      -2.73220000
H        0.94230000       2.01770000       0.28420000
H       -0.39360000       2.06680000      -0.87360000
H       -0.72060000       1.92400000       0.85660000
H        0.37810000      -0.35510000       0.87090000
H       -1.07010000      -0.26370000      -0.11280000
H        0.28770000      -0.07600000      -2.17130000
H        2.73450000      -0.42880000      -0.34450000
H        2.78030000      -0.31190000      -2.10940000
H        2.28200000       1.07140000      -1.16010000
H        1.17060000      -2.45300000      -0.47490000
H       -1.28830000      -2.35650000      -0.34470000
H       -1.41530000      -2.05600000      -2.08420000
H       -0.84620000      -3.62100000      -1.48530000
H        0.83970000      -2.18520000      -3.50890000
H        2.38190000      -2.22710000      -2.66510000
