20
Properties=species:S:1:pos:R:3 gdb_95007=T pbc="F F F"
C       -0.05290000       1.50300000      -0.03590000
N       -0.01640000       0.05090000       0.00420000
C       -1.34000000      -0.53860000      -0.17930000
C       -1.29590000      -2.05480000       0.03970000
C       -0.40760000      -2.38850000       1.23530000
C       -0.10450000      -1.27640000       2.28820000
O        1.16410000      -1.94880000       2.61070000
C        1.08480000      -1.98590000       1.13820000
C        0.66220000      -0.49290000       1.15180000
H        0.95990000       1.90500000       0.05860000
H       -0.45630000       1.83140000      -0.99970000
H       -0.67840000       1.95080000       0.75910000
H       -2.05980000      -0.10060000       0.54050000
H       -1.70800000      -0.29320000      -1.18170000
H       -2.31430000      -2.42480000       0.19650000
H       -0.90630000      -2.56340000      -0.85070000
H       -0.56810000      -3.37810000       1.66860000
H       -0.70540000      -0.92520000       3.12830000
H        1.89660000      -2.47070000       0.59370000
H        1.43860000       0.17710000       1.52400000
