15
Properties=species:S:1:pos:R:3 gdb_43213=T pbc="F F F"
O       -0.18880000      -0.04730000       0.08170000
C       -0.03420000       1.15440000      -0.04720000
C       -1.11500000       2.28940000      -0.10420000
N       -1.49940000       2.67640000       1.36650000
H       -2.44940000       3.00830000       1.52350000
H       -1.30840000       1.90320000       2.00590000
C       -0.44650000       3.78870000       1.34140000
C        0.03660000       3.32260000      -0.07280000
C        0.98130000       2.14550000      -0.07530000
C        2.37710000       2.12040000       0.04390000
N        3.53630000       2.13360000       0.14910000
H       -1.98640000       2.28810000      -0.75650000
H       -0.96740000       4.74820000       1.37940000
H        0.25910000       3.69650000       2.16610000
H        0.13150000       4.12110000      -0.80980000
