19
Properties=species:S:1:pos:R:3 gdb_62233=T pbc="F F F"
C        0.06850000       1.50560000       0.08800000
C        0.01060000      -0.02990000      -0.01360000
C       -1.43770000      -0.57300000      -0.00670000
N       -2.08560000      -0.26630000       1.26230000
C       -3.50870000      -0.56840000       1.29970000
C       -4.14850000       0.01780000       2.54850000
O       -5.09080000      -0.46430000       3.11800000
C        0.70840000      -0.50570000      -1.21180000
N        1.24560000      -0.87690000      -2.16540000
H        1.10030000       1.85420000       0.17190000
H       -0.37710000       1.96550000      -0.79870000
H       -0.49430000       1.82500000       0.96660000
H        0.53600000      -0.46140000       0.84990000
H       -2.00370000      -0.08180000      -0.80700000
H       -1.42290000      -1.64980000      -0.24270000
H       -1.61390000      -0.76770000       2.00970000
H       -3.98650000      -0.06800000       0.44400000
H       -3.77100000      -1.63620000       1.23160000
H       -3.66550000       0.96100000       2.89100000
