20
Properties=species:S:1:pos:R:3 gdb_110508=T pbc="F F F"
C        0.10900000       1.51180000       0.17420000
C        0.04230000      -0.00350000      -0.05450000
C       -1.37400000      -0.55570000       0.07550000
C       -1.67820000      -2.05410000       0.01350000
C       -2.81950000      -1.95140000       0.94680000
N       -1.59330000      -2.66620000       1.39310000
C       -1.25810000      -1.52500000       2.30830000
C       -2.11920000      -0.60100000       1.44850000
O       -2.66480000       0.52370000       2.03640000
H        1.13320000       1.88420000       0.07820000
H       -0.50730000       2.04810000      -0.55710000
H       -0.25580000       1.77630000       1.17160000
H        0.41830000      -0.24270000      -1.05790000
H        0.71420000      -0.51440000       0.64360000
H       -2.03350000      -0.05260000      -0.64720000
H       -1.53160000      -2.73410000      -0.81580000
H       -3.81830000      -2.36760000       0.96450000
H       -1.71390000      -1.72190000       3.28180000
H       -0.19300000      -1.30340000       2.43400000
H       -3.06660000       1.07020000       1.35270000
