16
Properties=species:S:1:pos:R:3 gdb_53910=T pbc="F F F"
N        0.01910000       1.30370000      -0.15910000
C        0.04200000      -0.00690000       0.23650000
O        0.99860000      -0.52130000       0.76450000
C       -1.30710000      -0.74070000       0.01410000
C       -1.10980000      -2.16980000      -0.17610000
C       -0.97090000      -3.34770000      -0.36170000
C       -2.24310000      -0.40280000       1.18360000
C       -3.26110000      -1.32870000       1.69000000
O       -2.04430000      -1.08810000       2.40590000
H        0.87770000       1.82450000      -0.07620000
H       -0.69440000       1.66660000      -0.76690000
H       -1.78220000      -0.32570000      -0.88700000
H       -0.82370000      -4.38850000      -0.51300000
H       -2.41690000       0.66940000       1.28890000
H       -4.16290000      -0.93070000       2.15280000
H       -3.34530000      -2.31830000       1.24750000
