18
Properties=species:S:1:pos:R:3 gdb_50600=T pbc="F F F"
O       -0.04130000      -0.03480000       0.40360000
C        0.01070000       1.16870000       0.26160000
N        1.13090000       1.87170000      -0.05580000
C        2.46010000       1.25830000      -0.13400000
C        3.38100000       2.33050000       0.47930000
C        2.70040000       3.64910000       0.12530000
O        2.88500000       4.03930000      -1.25520000
C        1.47590000       3.90800000      -1.53870000
C        1.20560000       3.31480000      -0.13540000
H       -0.86990000       1.83160000       0.38250000
H        2.44490000       0.30950000       0.40290000
H        2.73190000       1.05690000      -1.17680000
H        3.41670000       2.22370000       1.56900000
H        4.40210000       2.28890000       0.09380000
H        2.93150000       4.47080000       0.81040000
H        1.00360000       4.88280000      -1.71530000
H        1.27710000       3.24400000      -2.38710000
H        0.42490000       3.79060000       0.45890000
