13
Properties=species:S:1:pos:R:3 gdb_131910=T pbc="F F F"
C       -0.00890000       1.40030000       0.16060000
C       -0.03480000      -0.07060000      -0.02410000
N       -0.20110000      -0.74730000      -1.12690000
C       -0.14130000      -2.07000000      -0.74560000
C        0.06240000      -2.11390000       0.59570000
O        0.13320000      -0.84710000       1.07580000
N        0.20270000      -3.20040000       1.50980000
O        0.12950000      -4.32190000       1.01510000
O        0.38130000      -2.93720000       2.69110000
H        0.94830000       1.72180000       0.58290000
H       -0.15680000       1.87980000      -0.80680000
H       -0.79790000       1.71930000       0.84860000
H       -0.24470000      -2.89040000      -1.43560000
