14
Properties=species:S:1:pos:R:3 gdb_25162=T pbc="F F F"
O       -0.12200000       0.05840000      -0.70690000
C       -0.06390000       1.20820000      -0.35880000
O       -1.13380000       2.07690000      -0.30980000
C       -0.67780000       3.30170000       0.13110000
C        0.63790000       3.24110000       0.36080000
N        1.03200000       1.93640000       0.05950000
C        2.36680000       1.36440000       0.12000000
C        3.01910000       1.57300000       1.40930000
C        3.56690000       1.76700000       2.46000000
H       -1.40660000       4.08640000       0.22640000
H        1.32980000       3.98050000       0.72490000
H        2.23820000       0.29720000      -0.08910000
H        2.99220000       1.77890000      -0.68210000
H        4.04930000       1.92050000       3.39390000
