15
Properties=species:S:1:pos:R:3 gdb_80207=T pbc="F F F"
N        0.04630000       1.43510000       0.12040000
C       -0.05640000       0.01840000       0.09420000
C       -0.50800000      -0.80590000       1.24210000
N       -1.62990000      -0.21540000       1.97200000
C       -2.43950000      -0.14350000       0.80610000
N       -3.58640000       0.29490000       0.53070000
C       -1.38700000      -0.82130000      -0.03440000
C       -1.56000000      -1.82990000      -1.01720000
N       -1.67520000      -2.64310000      -1.83340000
H        0.00670000       1.81830000      -0.81830000
H       -0.70460000       1.86180000       0.65220000
H        0.73220000      -0.44920000      -0.49040000
H        0.04580000      -1.63230000       1.67020000
H       -1.49800000       0.58380000       2.58300000
H       -4.03830000       0.71890000       1.34270000
