26
Properties=species:S:1:pos:R:3 gdb_5889=T pbc="F F F"
C        0.16860000       1.57440000       0.00870000
C        0.05480000       0.04760000       0.00170000
C       -1.39640000      -0.44960000       0.01300000
C       -1.49510000      -1.98050000       0.00590000
C       -2.91520000      -2.60190000       0.01600000
C       -3.71110000      -2.17800000      -1.23240000
C       -2.76010000      -4.13470000       0.00600000
C       -3.68720000      -2.19190000       1.28390000
H        1.21400000       1.89890000       0.00040000
H       -0.32260000       2.01190000      -0.86770000
H       -0.30560000       2.00250000       0.89900000
H        0.56800000      -0.35470000      -0.88200000
H        0.58490000      -0.36400000       0.87100000
H       -1.90270000      -0.04220000       0.89740000
H       -1.91960000      -0.03290000      -0.85710000
H       -0.96260000      -2.36030000      -0.87760000
H       -0.94600000      -2.36950000       0.87510000
H       -3.17430000      -2.44050000      -2.15120000
H       -4.68340000      -2.68220000      -1.26090000
H       -3.90120000      -1.10050000      -1.25170000
H       -2.20430000      -4.48250000       0.88390000
H       -3.73770000      -4.62960000       0.01250000
H       -2.22100000      -4.47270000      -0.88600000
H       -3.87680000      -1.11470000       1.31860000
H       -4.65880000      -2.69660000       1.32530000
H       -3.13310000      -2.46440000       2.18940000
