16
Properties=species:S:1:pos:R:3 gdb_84581=T pbc="F F F"
O        0.02160000       1.45450000       0.03980000
C        0.04210000       0.04400000       0.00300000
C        0.72690000      -0.61890000       1.18070000
C        0.01700000      -1.61520000       1.70410000
C       -1.32280000      -1.78760000       1.02240000
N       -2.44090000      -1.54070000       1.96080000
C       -2.87520000      -0.39080000       1.66350000
O       -2.33690000       0.29300000       0.61560000
C       -1.36960000      -0.60800000       0.01100000
H       -0.68840000       1.70320000       0.64450000
H        0.55720000      -0.21470000      -0.93100000
H        1.70720000      -0.29390000       1.51020000
H        0.30750000      -2.24070000       2.53990000
H       -1.44200000      -2.77410000       0.56450000
H       -3.66990000       0.14070000       2.17540000
H       -1.73670000      -0.85390000      -0.98700000
