13
Properties=species:S:1:pos:R:3 gdb_5027=T pbc="F F F"
N        0.00880000       1.39160000       0.14010000
C       -0.07580000       0.02480000       0.04820000
C       -1.21520000      -0.71210000       0.02410000
N       -1.11120000      -2.09440000      -0.01080000
C        0.10060000      -2.68960000      -0.02100000
N        1.23440000      -2.06220000      -0.01340000
C        1.23850000      -0.67310000       0.00810000
O        2.26770000      -0.01250000      -0.01400000
H        0.94520000       1.71560000      -0.07130000
H       -0.74480000       1.94810000      -0.22970000
H       -2.21710000      -0.30330000       0.03730000
H       -1.94610000      -2.65720000      -0.02540000
H        0.08490000      -3.77750000      -0.03990000
