12
Properties=species:S:1:pos:R:3 gdb_20679=T pbc="F F F"
C       -0.04810000       1.94830000      -0.13600000
C        0.13180000       0.45260000       0.04550000
C        0.27130000      -0.45180000      -1.10010000
O        0.41540000      -1.65440000      -1.05980000
N       -0.40260000      -4.63180000       0.54500000
N       -0.71940000      -3.69230000       1.01830000
C        0.17140000      -0.09480000       1.25470000
O        0.20930000      -0.57560000       2.30400000
H        0.79510000       2.37700000      -0.68750000
H       -0.96570000       2.16730000      -0.69200000
H       -0.11180000       2.46450000       0.82410000
H        0.23340000       0.09460000      -2.06910000
