17
Properties=species:S:1:pos:R:3 gdb_103322=T pbc="F F F"
O        0.74500000      -0.36090000       1.28230000
C        0.10650000      -0.00420000       0.07490000
C       -1.29100000      -0.61200000       0.00900000
O       -2.00890000      -0.18270000       1.16070000
C       -2.09410000      -0.65320000      -1.33920000
C       -1.17540000      -1.85850000      -1.74630000
C       -1.47810000      -2.14460000      -0.23480000
C       -2.91840000      -1.75250000      -0.62740000
O       -4.03890000      -2.13350000      -0.52410000
H        0.07930000      -0.25160000       1.97330000
H        0.00460000       1.09270000      -0.01960000
H        0.75540000      -0.33410000      -0.73790000
H       -2.19870000       0.75860000       1.07050000
H       -2.42060000       0.18220000      -1.95610000
H       -1.59100000      -2.56310000      -2.46660000
H       -0.14270000      -1.61370000      -1.98600000
H       -1.11450000      -2.96080000       0.38350000
