18
Properties=species:S:1:pos:R:3 gdb_76284=T pbc="F F F"
C       -0.01090000       1.62960000       0.05650000
C        0.06820000       0.10380000      -0.01530000
N        0.86270000      -0.40640000      -1.12570000
C        0.49930000      -0.25390000      -2.51410000
C        1.84120000      -1.27630000      -0.71960000
O        2.61800000      -1.90540000      -1.40130000
N        1.77530000      -1.30130000       0.68350000
C        0.77450000      -0.50130000       1.19920000
N        0.43520000      -0.25170000       2.39640000
H        0.99160000       2.06700000       0.06480000
H       -0.56370000       2.03570000      -0.79540000
H       -0.52400000       1.91450000       0.97750000
H       -0.95240000      -0.30580000      -0.06130000
H        0.53220000       0.79610000      -2.82410000
H        1.21890000      -0.82110000      -3.10660000
H       -0.50960000      -0.64190000      -2.70880000
H        2.43530000      -1.83750000       1.22200000
H        1.02180000      -0.74410000       3.07130000
