16
Properties=species:S:1:pos:R:3 gdb_74503=T pbc="F F F"
C        0.09130000       1.50950000       0.06930000
C       -0.02150000       0.02160000      -0.00110000
C       -0.16190000      -0.72760000      -1.10160000
C       -0.12660000      -2.17930000      -0.75450000
O        1.11640000      -2.60430000      -0.13900000
C        0.03020000      -2.26510000       0.71810000
C        0.05760000      -0.84050000       1.25100000
C       -0.80240000      -3.17010000      -1.55270000
N       -1.35910000      -3.93880000      -2.21230000
H        1.06540000       1.80980000       0.47490000
H       -0.02280000       1.96830000      -0.91570000
H       -0.66930000       1.93120000       0.73810000
H       -0.24560000      -0.36750000      -2.11840000
H       -0.37670000      -3.08390000       1.30420000
H        0.97140000      -0.64700000       1.82570000
H       -0.78890000      -0.65300000       1.92350000
