19
Properties=species:S:1:pos:R:3 gdb_80796=T pbc="F F F"
C       -0.27520000       1.55910000      -0.08080000
C        0.03960000       0.07800000      -0.00790000
C        1.27200000      -0.57510000      -0.70970000
C        2.20350000       0.07170000       0.35390000
C        0.97330000      -0.53470000       1.09450000
C        0.73740000      -0.61580000       2.51560000
N        0.55320000      -0.67010000       3.65600000
N        1.01520000      -1.77030000       0.20130000
C        2.07710000      -2.75180000       0.40960000
H        0.59850000       2.20640000       0.02150000
H       -0.74780000       1.78900000      -1.04160000
H       -0.98650000       1.83180000       0.70570000
H       -0.85600000      -0.53460000      -0.13010000
H        1.44650000      -0.70360000      -1.77780000
H        3.16330000      -0.40710000       0.53760000
H        2.31330000       1.15620000       0.35950000
H        1.83250000      -3.33450000       1.30280000
H        2.07110000      -3.43480000      -0.44550000
H        3.09920000      -2.36360000       0.52610000
