17
Properties=species:S:1:pos:R:3 gdb_15352=T pbc="F F F"
C       -0.57150000       1.03240000       0.10930000
O        0.52910000       0.16560000      -0.09530000
C        0.96530000      -0.44960000       1.07340000
C        0.25950000      -1.69370000       1.55800000
C        1.63190000      -1.78420000       0.92060000
C        1.78360000      -2.37920000      -0.47070000
C        1.77330000      -3.84260000      -0.45740000
N        1.76710000      -4.99790000      -0.43630000
H       -0.31560000       1.84970000       0.79940000
H       -0.83000000       1.45680000      -0.86310000
H       -1.44010000       0.49440000       0.51400000
H        1.36600000       0.23850000       1.81950000
H        0.16460000      -1.87330000       2.62270000
H       -0.57900000      -2.03880000       0.96170000
H        2.46510000      -1.98620000       1.58600000
H        0.97730000      -2.01950000      -1.11610000
H        2.72080000      -2.04300000      -0.92950000
