17
Properties=species:S:1:pos:R:3 gdb_56563=T pbc="F F F"
N       -0.28610000       1.38950000       0.03960000
C       -0.03350000      -0.03000000       0.00620000
C        0.64630000      -0.57380000      -1.30250000
N        0.55210000      -2.05370000      -1.28920000
H        1.17890000      -2.45490000      -1.97990000
H        0.88660000      -2.15900000       0.47660000
H       -0.39020000      -2.33220000      -1.55160000
C        0.06010000       0.01910000      -2.50420000
C       -0.45080000       0.48010000      -3.49090000
C        0.82740000      -0.41950000       1.22970000
O        1.19980000       0.39190000       2.03690000
O        1.13260000      -1.71590000       1.32780000
H        0.43840000       1.85080000       0.57910000
H       -0.35110000       1.78700000      -0.88920000
H       -0.98210000      -0.58660000       0.09240000
H        1.71220000      -0.31740000      -1.26610000
H       -0.89110000       0.88960000      -4.36700000
