21
Properties=species:S:1:pos:R:3 gdb_94973=T pbc="F F F"
C        0.03500000       1.55510000       0.07780000
C        0.04420000       0.02870000       0.05040000
C        0.79580000      -0.58920000      -1.19930000
C        1.58540000      -1.89250000      -0.75460000
C        1.12810000      -2.09090000       0.69580000
C        1.80810000      -1.81340000       2.07690000
C        2.28740000      -0.44140000       1.58490000
C        0.80940000      -0.67370000       1.13990000
O        0.52420000      -1.16680000       2.51580000
H        1.05660000       1.95020000       0.10500000
H       -0.45760000       1.96430000      -0.81030000
H       -0.49560000       1.93130000       0.95800000
H       -0.98630000      -0.34720000       0.06570000
H        0.08010000      -0.80970000      -1.99550000
H        1.49310000       0.15130000      -1.60380000
H        1.33140000      -2.74850000      -1.38390000
H        2.66180000      -1.73540000      -0.85620000
H        0.27350000      -2.76430000       0.79690000
H        2.25920000      -2.49890000       2.79550000
H        2.41810000       0.30700000       2.36680000
H        3.06940000      -0.39890000       0.82420000
