22
Properties=species:S:1:pos:R:3 gdb_100890=T pbc="F F F"
C        0.14790000       1.60930000      -0.01560000
C        0.08480000       0.08330000       0.03220000
N        0.56610000      -0.47560000       1.30240000
C       -0.30250000      -0.13960000       2.42960000
C        0.87840000      -1.90290000       1.20290000
C        1.88010000      -2.35700000       2.28220000
N        3.11830000      -1.61020000       2.09350000
C       -0.32790000      -2.76580000       1.20830000
N       -1.29520000      -3.39920000       1.22310000
H        1.15150000       1.96080000       0.24210000
H       -0.09040000       1.95470000      -1.02610000
H       -0.56720000       2.07980000       0.66470000
H       -0.94350000      -0.25480000      -0.19060000
H        0.72660000      -0.31710000      -0.75980000
H       -1.33330000      -0.51050000       2.30190000
H        0.09730000      -0.56050000       3.35470000
H       -0.33760000       0.94420000       2.55430000
H        1.38200000      -2.05250000       0.24190000
H        1.41920000      -2.25750000       3.27820000
H        2.07440000      -3.42490000       2.13370000
H        2.90380000      -0.61830000       2.13850000
H        3.77190000      -1.81680000       2.84110000
