18
Properties=species:S:1:pos:R:3 gdb_71650=T pbc="F F F"
O       -0.02640000       1.41290000       0.06810000
C        0.03350000       0.01400000      -0.00020000
C        0.35530000      -0.67190000      -1.36150000
C       -0.74660000      -1.68350000      -1.01510000
C       -1.37030000      -0.72300000       0.01870000
C       -1.29070000      -1.87050000       1.03790000
C        0.15770000      -2.00910000       1.26220000
C        0.86020000      -0.67760000       1.09530000
N       -0.45130000      -2.70110000       0.08280000
H        0.86850000       1.76000000      -0.01840000
H        0.03130000      -0.04660000      -2.19970000
H        1.37630000      -1.02740000      -1.53140000
H       -1.31450000      -2.16990000      -1.80790000
H       -2.26060000      -0.12280000      -0.14800000
H       -2.08630000      -2.29990000       1.63610000
H        0.53350000      -2.72310000       1.98810000
H        1.91600000      -0.76940000       0.81630000
H        0.79820000      -0.11520000       2.03510000
