22
Properties=species:S:1:pos:R:3 gdb_38451=T pbc="F F F"
C        0.24440000       1.72420000      -0.06950000
C        1.71100000       1.29620000      -0.16490000
N        2.00390000       0.53650000       1.07810000
C        1.34380000      -0.13870000      -0.06430000
C       -0.16150000       0.20760000       0.02240000
C       -0.92560000      -0.30840000       1.25750000
C       -1.70700000      -1.57210000       0.79150000
C       -1.35450000      -1.75250000      -0.70490000
C       -0.96120000      -0.34110000      -1.16660000
H       -0.00110000       2.34990000       0.79290000
H       -0.13100000       2.19350000      -0.98310000
H        2.51050000       1.77580000      -0.71630000
H        2.99100000       0.28110000       1.04580000
H        1.79150000      -1.01170000      -0.52670000
H       -0.23410000      -0.50480000       2.08010000
H       -1.62030000       0.46130000       1.61060000
H       -1.45380000      -2.45910000       1.37860000
H       -2.78440000      -1.41800000       0.90980000
H       -0.49650000      -2.42700000      -0.81310000
H       -2.17300000      -2.18390000      -1.28810000
H       -1.85950000       0.27260000      -1.31700000
H       -0.39550000      -0.32620000      -2.10450000
