16
Properties=species:S:1:pos:R:3 gdb_46442=T pbc="F F F"
O       -0.01100000      -0.01460000      -0.10420000
C       -0.02420000       1.18050000      -0.05190000
C       -1.26570000       2.06980000       0.11520000
C       -0.77990000       3.51510000      -0.05840000
C        0.75450000       3.41250000      -0.04070000
C        1.39150000       2.73870000       1.12110000
N        1.17240000       1.98120000      -0.13550000
C        1.49540000       4.37000000      -0.81400000
C        2.07720000       5.20750000      -1.45000000
H       -2.02600000       1.77320000      -0.61030000
H       -1.68700000       1.87010000       1.10570000
H       -1.08750000       3.92140000      -1.02440000
H       -1.14570000       4.19560000       0.71460000
H        2.43470000       2.93000000       1.34770000
H        0.76870000       2.49690000       1.97960000
H        2.60520000       5.93430000      -2.01650000
