25
Properties=species:S:1:pos:R:3 gdb_119397=T pbc="F F F"
C       -0.04420000       1.60250000       0.08190000
C       -0.00550000       0.07170000       0.09230000
C       -1.39150000      -0.56020000      -0.10170000
C       -1.41040000      -2.07510000      -0.04190000
C       -1.03900000      -2.87420000       1.25070000
C       -1.84870000      -4.00370000       0.55520000
C       -2.75430000      -2.87050000      -0.00080000
C       -0.96380000      -4.32850000      -0.66360000
C       -0.63100000      -2.86980000      -1.11880000
H        0.95340000       2.02980000       0.22440000
H       -0.43650000       1.98210000      -0.86830000
H       -0.68870000       1.98730000       0.88040000
H        0.67410000      -0.27980000      -0.69350000
H        0.42080000      -0.27680000       1.04190000
H       -2.07190000      -0.16430000       0.66520000
H       -1.80450000      -0.23440000      -1.06770000
H        0.01940000      -3.05480000       1.46540000
H       -1.53980000      -2.48060000       2.13940000
H       -2.25860000      -4.84480000       1.11530000
H       -3.44590000      -2.47390000       0.74750000
H       -3.28160000      -3.04390000      -0.94520000
H       -0.07090000      -4.89870000      -0.39020000
H       -1.50200000      -4.89660000      -1.42830000
H       -0.99220000      -2.64790000      -2.12830000
H        0.44230000      -2.66050000      -1.09630000
