21
Properties=species:S:1:pos:R:3 gdb_106298=T pbc="F F F"
C       -0.27730000       1.40880000       0.00610000
C       -0.00210000      -0.06760000      -0.01520000
C        0.79730000      -0.78640000      -1.13280000
C       -0.13450000      -1.92370000      -0.66210000
C       -0.66340000      -3.02850000      -1.53920000
O       -1.75820000      -3.68500000      -0.92220000
C        0.37870000      -2.24440000       0.76050000
C        0.48510000      -0.77590000       1.27250000
O       -1.15840000      -0.90440000      -0.37740000
H        0.63900000       1.96270000       0.23540000
H       -0.65750000       1.75120000      -0.96030000
H       -1.02020000       1.64910000       0.77400000
H        0.53000000      -0.41810000      -2.12480000
H        1.87880000      -0.90430000      -1.02450000
H       -0.94360000      -2.61380000      -2.51970000
H        0.11100000      -3.78610000      -1.70320000
H       -2.38390000      -2.99300000      -0.67690000
H       -0.34980000      -2.84320000       1.30820000
H        1.33450000      -2.77600000       0.75290000
H        1.49950000      -0.48200000       1.55720000
H       -0.18440000      -0.56820000       2.11070000
