23
Properties=species:S:1:pos:R:3 gdb_88196=T pbc="F F F"
C       -0.10650000       1.53250000      -0.10530000
C        0.02220000       0.02950000       0.02040000
C        1.35020000      -0.66730000      -0.18450000
C        0.69810000      -0.65570000       1.18390000
C        1.35460000       0.13260000       2.30800000
C        2.31990000      -0.77190000       3.08400000
O        1.67710000      -1.93830000       3.56890000
C        1.14720000      -2.72880000       2.51780000
C        0.10310000      -1.95630000       1.70470000
H        0.78900000       2.05290000       0.24580000
H       -0.25960000       1.82010000      -1.15140000
H       -0.95840000       1.91210000       0.47040000
H       -0.83960000      -0.50980000      -0.36890000
H        1.37360000      -1.59480000      -0.74810000
H        2.22440000      -0.04000000      -0.33350000
H        1.90070000       1.00230000       1.92910000
H        0.58830000       0.50370000       3.00150000
H        3.16800000      -1.05090000       2.43470000
H        2.72130000      -0.25740000       3.96210000
H        1.96090000      -3.06720000       1.85310000
H        0.70790000      -3.61190000       2.99120000
H       -0.75560000      -1.73780000       2.35340000
H       -0.26100000      -2.57870000       0.87890000
