14
Properties=species:S:1:pos:R:3 gdb_53926=T pbc="F F F"
N       -0.08890000       1.34240000      -0.23230000
C        0.07920000       0.00010000       0.02840000
N        1.19690000      -0.47870000       0.38960000
C       -1.28440000      -0.77850000       0.03390000
N       -2.07760000      -0.50370000       1.24470000
C       -2.08840000      -0.38740000      -1.14380000
N       -2.67440000      -0.00460000      -2.06240000
C       -1.01920000      -2.22760000      -0.03210000
N       -0.78000000      -3.35640000      -0.04950000
H        0.78240000       1.85310000      -0.26840000
H       -0.74790000       1.59740000      -0.95440000
H        1.14690000      -1.47030000       0.61490000
H       -1.54520000      -0.81660000       2.05290000
H       -2.18330000       0.50420000       1.33110000
