16
Properties=species:S:1:pos:R:3 gdb_69871=T pbc="F F F"
C       -0.06300000       1.55010000       0.09100000
C        0.07140000       0.06270000       0.04490000
N       -0.84730000      -0.88480000       0.69720000
C        0.60650000      -0.93440000       0.99970000
C        1.31840000      -1.70180000      -0.15500000
N        0.32490000      -2.13530000      -1.14220000
C        0.77510000      -0.71470000      -1.14140000
C        1.41790000      -0.11050000      -2.25290000
N        1.93540000       0.40750000      -3.15140000
H        0.86000000       2.03900000      -0.23700000
H       -0.87270000       1.89290000      -0.56290000
H       -0.28160000       1.88530000       1.11010000
H       -1.28890000      -0.37930000       1.46620000
H        0.99470000      -0.80830000       2.00140000
H        2.31560000      -2.11920000      -0.11300000
H        0.82980000      -2.60270000      -1.89710000
