16
Properties=species:S:1:pos:R:3 gdb_48006=T pbc="F F F"
O       -0.06120000      -0.14660000       0.12650000
C       -0.00130000       1.05550000       0.24900000
C        1.20820000       1.82830000       0.13490000
C        2.20780000       2.50440000       0.05340000
C        3.40970000       3.30100000      -0.06040000
C        4.11370000       3.39640000      -1.45590000
C        3.86700000       4.89790000      -1.36850000
C        2.43990000       5.19680000      -1.15990000
N        3.24220000       4.81070000       0.01800000
H       -0.90450000       1.66170000       0.46500000
H        4.11370000       3.00320000       0.72130000
H        5.16480000       3.11240000      -1.39720000
H        3.64410000       2.86990000      -2.28990000
H        4.59690000       5.66410000      -1.60630000
H        2.14240000       6.24000000      -1.12800000
H        1.67480000       4.51630000      -1.52660000
