16
Properties=species:S:1:pos:R:3 gdb_43306=T pbc="F F F"
O       -0.03680000      -0.03550000      -0.02880000
C       -0.04990000       1.17200000       0.01660000
C       -1.25190000       2.04970000       0.13140000
C       -0.91130000       3.34850000       0.12370000
C        0.57360000       3.53900000       0.04020000
C        1.15240000       2.11840000      -0.04510000
C        1.70690000       2.52240000      -1.42580000
C        0.67680000       3.03000000      -2.34570000
N        1.19480000       3.94870000      -1.30980000
H       -2.25380000       1.64130000       0.18980000
H       -1.60780000       4.18000000       0.15610000
H        0.97440000       4.20460000       0.80620000
H        1.92600000       1.85080000       0.67390000
H        2.72240000       2.31320000      -1.74310000
H        1.00660000       3.32120000      -3.33790000
H       -0.34600000       2.66970000      -2.29910000
