16
Properties=species:S:1:pos:R:3 gdb_50963=T pbc="F F F"
O       -0.15300000      -0.02850000       0.24270000
C       -0.04840000       1.07850000      -0.21000000
C        1.25180000       1.87180000      -0.19810000
C        1.33540000       2.95550000      -1.27680000
C        2.63590000       3.79010000      -1.14980000
C        2.68630000       4.92100000      -2.07480000
N        2.70320000       5.81240000      -2.80980000
C        1.19070000       2.36420000      -2.67350000
O        0.79820000       1.24390000      -2.87560000
H       -0.92920000       1.62340000      -0.61970000
H        1.31940000       2.34560000       0.79120000
H        2.08120000       1.16210000      -0.27170000
H        0.49070000       3.65350000      -1.16540000
H        2.71980000       4.17610000      -0.12850000
H        3.51280000       3.15430000      -1.31830000
H        1.45580000       3.04340000      -3.51090000
