17
Properties=species:S:1:pos:R:3 gdb_54342=T pbc="F F F"
C       -0.03740000       1.52920000      -0.02990000
C        0.03360000       0.02080000       0.06560000
O        0.13120000      -0.56120000       1.11790000
C        0.02840000      -0.75790000      -1.26870000
C        1.49620000      -0.95910000      -1.79860000
O        1.46610000      -2.35420000      -1.49370000
C        0.08360000      -2.30010000      -1.09010000
C       -0.92680000      -0.23900000      -2.22480000
C       -1.72410000       0.17990000      -3.02210000
H        0.66370000       1.90930000      -0.78030000
H       -1.03800000       1.82620000      -0.35970000
H        0.17550000       1.96750000       0.94530000
H        1.60220000      -0.75700000      -2.87070000
H        2.27620000      -0.42460000      -1.24220000
H       -0.05910000      -2.62780000      -0.05760000
H       -0.56940000      -2.85240000      -1.77340000
H       -2.42820000       0.54720000      -3.72750000
