13
Properties=species:S:1:pos:R:3 gdb_132950=T pbc="F F F"
N        0.00570000       1.38020000       0.14410000
C       -0.04970000       0.00540000       0.04920000
C       -1.18410000      -0.73700000       0.02730000
O       -1.18540000      -2.09600000      -0.01260000
C       -0.01520000      -2.74650000      -0.02630000
C        1.17250000      -2.10340000      -0.01270000
F        2.29980000      -2.80840000      -0.04010000
C        1.26940000      -0.65680000       0.01230000
O        2.31460000      -0.01570000      -0.00670000
H        0.93330000       1.72260000      -0.07780000
H       -0.74750000       1.90830000      -0.26730000
H       -2.19080000      -0.34260000       0.04330000
H       -0.12130000      -3.82260000      -0.05280000
