15
Properties=species:S:1:pos:R:3 gdb_53760=T pbc="F F F"
N       -0.01780000       1.34780000       0.00830000
C        0.06000000      -0.01330000       0.00140000
O        1.10810000      -0.62870000      -0.01080000
C       -1.23710000      -0.67930000       0.01000000
C       -2.27580000      -1.29050000       0.01660000
C       -3.50460000      -2.06940000       0.02420000
C       -3.21780000      -3.59400000       0.01370000
C       -4.45130000      -4.37630000       0.02110000
N       -5.44000000      -4.97410000       0.02760000
H        0.83960000       1.87560000       0.00300000
H       -0.89980000       1.82870000       0.01840000
H       -4.10190000      -1.81890000       0.90830000
H       -4.11850000      -1.80990000      -0.84590000
H       -2.63120000      -3.85560000      -0.87240000
H       -2.61470000      -3.86460000       0.88580000
