16
Properties=species:S:1:pos:R:3 gdb_14927=T pbc="F F F"
N       -0.00150000      -1.15320000       0.03970000
C        0.00910000       0.00140000       0.00490000
C        0.00130000       1.46630000       0.02020000
C       -0.73580000       1.99280000       1.27570000
O       -0.71060000       3.40270000       1.28990000
C        0.61590000       3.91560000       1.30210000
C        1.38430000       3.44720000       0.06580000
N        1.37080000       1.98710000      -0.09070000
H       -0.55450000       1.81580000      -0.86040000
H       -1.78650000       1.69030000       1.27080000
H       -0.25360000       1.57790000       2.17670000
H        0.52430000       5.00530000       1.32980000
H        1.13760000       3.58730000       2.21780000
H        0.92620000       3.88710000      -0.82890000
H        2.42500000       3.78360000       0.10450000
H        1.94680000       1.55770000       0.62920000
