19
Properties=species:S:1:pos:R:3 gdb_94306=T pbc="F F F"
O        0.72950000       0.89840000      -0.44810000
C        0.22880000      -0.21420000       0.24580000
C       -0.19040000      -0.09420000       1.73240000
C       -1.34940000      -1.08340000       1.42930000
C       -1.19130000      -0.75760000      -0.07920000
C       -2.22370000       0.22750000      -0.71200000
C       -2.68150000      -0.92940000      -1.61530000
O       -3.64140000      -1.10860000      -2.30550000
C       -1.48950000      -1.79960000      -1.19150000
H        0.20030000       1.66600000      -0.20620000
H        0.97260000      -1.00670000       0.10890000
H        0.54100000      -0.36160000       2.49770000
H       -0.57180000       0.91030000       1.94840000
H       -1.07290000      -2.11830000       1.65070000
H       -2.32040000      -0.87710000       1.88530000
H       -2.98610000       0.67870000      -0.07110000
H       -1.74020000       1.01390000      -1.30500000
H       -0.71410000      -1.83240000      -1.96640000
H       -1.72400000      -2.82380000      -0.88730000
