21
Properties=species:S:1:pos:R:3 gdb_107619=T pbc="F F F"
C        0.01740000       1.55140000      -0.12880000
C        0.04260000       0.03790000       0.00680000
O        0.77160000      -0.50910000      -1.09710000
C        1.25170000      -1.79550000      -0.72980000
C        1.52240000      -1.71650000       0.76210000
C        2.23320000      -0.47580000       1.23800000
C        0.72470000      -0.52980000       1.25300000
C       -0.03080000      -0.55700000       2.54950000
O       -0.18380000       0.77880000       3.02130000
H        1.03330000       1.95600000      -0.10850000
H       -0.45120000       1.84080000      -1.07380000
H       -0.54410000       1.98550000       0.70140000
H       -0.99470000      -0.34540000      -0.00750000
H        0.50240000      -2.57810000      -0.93640000
H        2.13820000      -2.00060000      -1.33980000
H        1.58860000      -2.63480000       1.33510000
H        2.73600000      -0.52400000       2.19760000
H        2.72100000       0.15140000       0.49910000
H       -1.01500000      -1.02920000       2.39310000
H        0.51620000      -1.17260000       3.28120000
H       -0.75730000       0.75920000       3.79340000
