22
Properties=species:S:1:pos:R:3 gdb_69969=T pbc="F F F"
C       -0.07750000       1.54960000       0.08860000
C        0.11930000       0.06550000       0.01820000
N       -0.80840000      -0.85560000       0.71850000
C        0.64970000      -0.92540000       1.00260000
C        1.29310000      -1.77230000      -0.11270000
C        0.43100000      -2.89330000      -0.76410000
C       -0.12920000      -1.86420000      -1.79570000
C        0.75420000      -0.74150000      -1.16170000
C        1.69470000       0.03300000      -2.05820000
H        0.80590000       2.09180000      -0.26280000
H       -0.92900000       1.86740000      -0.52580000
H       -0.27480000       1.86660000       1.11910000
H       -1.23310000      -0.32500000       1.47910000
H        1.00740000      -0.78610000       2.01720000
H        2.36610000      -1.93780000      -0.00090000
H        1.03230000      -3.68590000      -1.21650000
H       -0.31480000      -3.34120000      -0.10620000
H        0.14340000      -2.08290000      -2.83230000
H       -1.20500000      -1.69380000      -1.73650000
H        1.15030000       0.72600000      -2.71180000
H        2.41490000       0.62070000      -1.47670000
H        2.26620000      -0.64610000      -2.70010000
