18
Properties=species:S:1:pos:R:3 gdb_50857=T pbc="F F F"
N       -0.33640000       1.30880000       0.00900000
C       -0.09590000       0.07870000       0.11390000
O       -1.12600000      -0.79900000      -0.11430000
C       -0.86750000      -2.14730000       0.00250000
O        0.20260000      -2.59810000       0.30320000
C       -2.11690000      -2.93250000      -0.32690000
C       -1.98690000      -4.40450000      -0.02010000
C       -2.37070000      -4.93210000       1.33810000
C       -3.22470000      -5.24950000       0.13490000
H        0.51030000       1.84180000       0.20330000
H        0.83900000      -0.42120000       0.36810000
H       -2.95660000      -2.47950000       0.21230000
H       -2.32890000      -2.75890000      -1.39130000
H       -1.13070000      -4.87830000      -0.48850000
H       -1.76820000      -5.72270000       1.77000000
H       -2.76320000      -4.22770000       2.06450000
H       -4.19000000      -4.75980000       0.05460000
H       -3.20820000      -6.25910000      -0.25970000
