18
Properties=species:S:1:pos:R:3 gdb_77180=T pbc="F F F"
O        0.51500000       0.92110000       0.46520000
C        0.18400000      -0.34650000      -0.03080000
C       -1.34640000      -0.66310000      -0.15260000
N       -1.08170000      -1.01220000      -1.57390000
C        0.20250000      -0.46850000      -1.55150000
N        1.06740000      -0.06990000      -2.38110000
C       -1.92320000      -1.77030000       0.69110000
C       -2.90600000      -2.72900000       0.13200000
N       -1.53560000      -3.16660000       0.45480000
H        1.14480000       1.30320000      -0.15890000
H        0.73110000      -1.14450000       0.48820000
H       -1.92000000       0.26330000      -0.03580000
H       -1.73850000      -0.88940000      -2.33390000
H        0.76090000      -0.16380000      -3.35060000
H       -1.99970000      -1.50740000       1.74480000
H       -3.68640000      -3.14270000       0.76390000
H       -3.17720000      -2.62790000      -0.91620000
H       -1.00210000      -3.20890000      -0.41300000
