15
Properties=species:S:1:pos:R:3 gdb_28715=T pbc="F F F"
C        0.18120000       1.43320000       0.07410000
C       -0.05610000      -0.02630000      -0.02020000
C       -1.12260000      -0.82260000      -0.25340000
N       -0.73670000      -2.16670000      -0.22250000
C        0.52680000      -2.09670000       0.02480000
O        1.43350000      -3.07110000       0.16890000
C        0.99390000      -4.36840000       0.03490000
N        1.84000000      -5.28560000       0.17240000
O        1.03630000      -0.86490000       0.16420000
H        0.90500000       1.77380000      -0.67480000
H       -0.75820000       1.96550000      -0.09140000
H        0.56720000       1.71690000       1.05950000
H       -2.14500000      -0.53670000      -0.44240000
H       -0.07330000      -4.43100000      -0.18170000
H        1.39030000      -6.19110000       0.04970000
