21
Properties=species:S:1:pos:R:3 gdb_95783=T pbc="F F F"
C       -0.11600000       1.54060000      -0.02860000
C        0.05870000       0.02500000       0.02360000
C        0.76740000      -0.53060000      -1.23460000
O        0.94030000      -1.93060000      -1.17420000
C        1.76280000      -2.31780000      -0.09390000
C        1.14960000      -1.93370000       1.27380000
C        2.04260000      -2.33500000       2.44510000
C        0.83530000      -0.43930000       1.25400000
O        1.20310000       0.31970000       2.12220000
H        0.85290000       2.04480000      -0.09250000
H       -0.71580000       1.83290000      -0.89610000
H       -0.60930000       1.90480000       0.87500000
H       -0.92260000      -0.46890000       0.06500000
H        0.16920000      -0.32660000      -2.12710000
H        1.74130000      -0.02580000      -1.35700000
H        1.88240000      -3.40270000      -0.16380000
H        2.76300000      -1.86020000      -0.18620000
H        0.18530000      -2.45810000       1.33460000
H        3.01490000      -1.83700000       2.38510000
H        1.58960000      -2.04330000       3.39490000
H        2.20800000      -3.41680000       2.45460000
