19
Properties=species:S:1:pos:R:3 gdb_89768=T pbc="F F F"
C       -0.71930000       1.26230000      -0.02970000
C        0.13820000       0.01260000       0.00430000
N        1.44540000       0.12960000      -0.69840000
C        2.14850000      -0.49490000       0.42320000
C        3.07630000      -1.67080000       0.36250000
C        3.58330000      -0.29650000       0.77440000
C        0.90490000      -0.36550000       1.32610000
C        0.97950000       0.66430000       2.35000000
N        1.04730000       1.47590000       3.17090000
H       -0.15830000       2.12950000       0.32700000
H       -1.04380000       1.46280000      -1.05600000
H       -1.61260000       1.14130000       0.59210000
H       -0.44740000      -0.85710000      -0.32160000
H        1.49980000      -0.38240000      -1.57310000
H        2.99630000      -2.44310000       1.12150000
H        3.35870000      -2.03970000      -0.61930000
H        4.19190000       0.25270000       0.06390000
H        3.84140000      -0.12990000       1.81500000
H        0.57150000      -1.29880000       1.78480000
