14
Properties=species:S:1:pos:R:3 gdb_28828=T pbc="F F F"
C       -0.49140000       1.32960000       0.16310000
C        0.01150000      -0.07300000      -0.01680000
N       -0.05080000      -0.62220000      -1.18380000
C        0.40770000      -1.90740000      -1.43800000
N        0.34500000      -2.95200000      -0.69980000
C       -0.20210000      -2.80450000       0.58600000
O       -1.17030000      -3.38710000       0.98600000
N        0.58880000      -1.97790000       1.42390000
C        0.63390000      -0.72940000       1.15850000
H        0.31800000       1.98750000       0.50120000
H       -0.89580000       1.70610000      -0.77640000
H       -1.26730000       1.36020000       0.93690000
H        0.81500000      -2.01870000      -2.44290000
H        1.18790000      -0.08150000       1.84330000
