17
Properties=species:S:1:pos:R:3 gdb_31839=T pbc="F F F"
C        0.06860000       1.41610000       0.16350000
N       -0.03040000       0.00660000      -0.14620000
C       -1.22740000      -0.67730000      -0.06400000
N       -1.14670000      -2.01660000      -0.01800000
C       -2.28070000      -2.70060000       0.00810000
C       -3.53680000      -2.07290000       0.00450000
N       -4.72700000      -2.79620000      -0.03220000
N       -3.61980000      -0.74190000      -0.01410000
C       -2.48260000      -0.04950000      -0.05130000
H        1.11830000       1.71340000       0.11910000
H       -0.47340000       2.01680000      -0.57610000
H       -0.32350000       1.67440000       1.16010000
H        0.75860000      -0.57030000       0.10250000
H       -2.20130000      -3.78590000       0.03850000
H       -4.70280000      -3.68860000       0.43950000
H       -5.52260000      -2.23710000       0.24320000
H       -2.57460000       1.03210000      -0.06610000
