16
Properties=species:S:1:pos:R:3 gdb_14188=T pbc="F F F"
C        0.00590000       1.44530000      -0.09860000
C       -0.00420000      -0.04590000      -0.01690000
O        0.57590000      -0.82840000      -1.11110000
C        0.10960000      -1.83310000      -0.16980000
C        0.50780000      -1.02440000       1.09750000
C       -0.88900000      -1.15520000       1.74130000
C       -1.18920000      -1.03740000       0.22810000
O       -2.39520000      -0.95050000      -0.42550000
H        1.03000000       1.81870000      -0.19280000
H       -0.56940000       1.78090000      -0.96650000
H       -0.44160000       1.87880000       0.80140000
H        0.26020000      -2.88680000      -0.40310000
H        1.48880000      -1.00960000       1.56540000
H       -1.11700000      -2.11400000       2.21670000
H       -1.21950000      -0.32500000       2.37150000
H       -2.90550000      -1.74860000      -0.24950000
