18
Properties=species:S:1:pos:R:3 gdb_91519=T pbc="F F F"
C        0.03800000       1.67170000       0.15740000
C        0.07050000       0.16420000       0.14970000
N        1.05620000      -0.49430000      -0.89530000
H        0.56870000      -1.03300000      -1.60880000
H        1.71800000       0.13540000      -1.35420000
C        1.62720000      -1.33910000       0.22220000
C        2.23290000      -0.45100000       1.25060000
C        0.74340000      -0.63290000       1.25420000
C       -0.07990000      -1.28080000       2.39720000
O       -1.27850000      -0.94310000       2.34390000
O        0.57670000      -2.02790000       3.13290000
H        1.02330000       2.11170000       0.33790000
H       -0.37830000       2.08570000      -0.76670000
H       -0.61760000       1.95920000       0.98480000
H       -0.91270000      -0.26720000      -0.03920000
H        1.83590000      -2.38080000       0.02030000
H        2.68260000      -1.00490000       2.07000000
H        2.73370000       0.47370000       0.96910000
