16
Properties=species:S:1:pos:R:3 gdb_1530=T pbc="F F F"
C        0.50790000       0.77780000       0.40960000
N       -0.40020000       0.38110000      -0.66520000
C        0.21780000      -0.46690000      -1.66080000
C        0.50570000      -1.89440000      -1.19330000
O        0.04290000      -2.39830000      -0.20010000
O        1.31650000      -2.53550000      -2.05540000
C        1.60030000      -3.90460000      -1.73530000
H        0.97280000      -0.06480000       0.94520000
H        1.30660000       1.40340000      -0.00520000
H       -0.04100000       1.38280000       1.13680000
H       -1.18410000      -0.12200000      -0.26120000
H       -0.43380000      -0.54910000      -2.54140000
H        1.15000000      -0.01490000      -2.01600000
H        2.09410000      -3.97750000      -0.76310000
H        0.67930000      -4.49240000      -1.70560000
H        2.25820000      -4.26500000      -2.52610000
