23
Properties=species:S:1:pos:R:3 gdb_108474=T pbc="F F F"
C       -0.14430000       1.40480000       0.25150000
C       -0.16360000      -0.07150000      -0.16290000
C        0.77670000      -0.44100000      -1.29850000
C        1.14060000      -1.93540000      -1.44160000
O        2.55690000      -1.65120000      -1.48030000
C        2.32640000      -0.23900000      -1.30770000
C        2.24780000       0.51610000      -2.65170000
C        0.69280000       0.34080000      -2.65710000
C        0.03960000      -0.31110000      -3.86940000
H        0.86510000       1.72330000       0.53380000
H       -0.49020000       2.06450000      -0.55000000
H       -0.79700000       1.57110000       1.11380000
H        0.09140000      -0.68550000       0.71090000
H       -1.18780000      -0.35880000      -0.44230000
H        0.87980000      -2.53920000      -0.56130000
H        0.79460000      -2.46140000      -2.33900000
H        2.92070000       0.18350000      -0.49200000
H        2.57970000       1.55720000      -2.61280000
H        2.78380000       0.00150000      -3.45340000
H        0.21050000       1.30710000      -2.48310000
H        0.53830000      -1.24320000      -4.15390000
H       -1.01680000      -0.53750000      -3.68420000
H        0.08630000       0.35820000      -4.73550000
