17
Properties=species:S:1:pos:R:3 gdb_102791=T pbc="F F F"
N        0.05200000       1.30920000      -0.03000000
C        0.08630000      -0.04260000      -0.12850000
O        1.12340000      -0.67270000      -0.23680000
C       -1.28180000      -0.74470000      -0.06180000
C       -2.18760000      -0.36520000      -1.25100000
O       -1.56290000      -0.61100000      -2.49220000
N       -1.01160000      -2.17060000      -0.05690000
C       -1.89510000      -3.06560000       0.45880000
O       -3.02900000      -2.79780000       0.80150000
H        0.91350000       1.81360000      -0.16270000
H       -0.81020000       1.82500000      -0.04300000
H       -1.79840000      -0.46470000       0.86600000
H       -3.13120000      -0.91460000      -1.13900000
H       -2.42090000       0.70490000      -1.22780000
H       -1.34520000      -1.55000000      -2.51590000
H       -0.02820000      -2.40260000      -0.14270000
H       -1.46920000      -4.08600000       0.51710000
