19
Properties=species:S:1:pos:R:3 gdb_63692=T pbc="F F F"
C       -0.11510000       1.47110000       0.34080000
C        0.04350000      -0.01770000       0.13920000
O       -1.11700000      -0.69440000      -0.26820000
C        1.37470000      -0.57130000      -0.34520000
C        0.91130000      -0.83420000       1.05970000
O        1.63600000      -0.22400000       2.08290000
C        0.93660000      -0.16070000       3.30700000
C        1.85850000       0.46160000       4.34050000
O        1.52420000       0.70890000       5.46810000
H        0.77380000       1.89700000       0.81230000
H       -0.26810000       1.98190000      -0.61740000
H       -0.98360000       1.67830000       0.97400000
H       -1.29720000      -0.45080000      -1.18340000
H        1.36140000      -1.40340000      -1.03990000
H        2.19560000       0.12760000      -0.46550000
H        0.54690000      -1.83510000       1.29250000
H        0.01750000       0.43930000       3.23280000
H        0.64150000      -1.16390000       3.65690000
H        2.88280000       0.66630000       3.95780000
