15
Properties=species:S:1:pos:R:3 gdb_68120=T pbc="F F F"
O       -0.06570000       1.36130000       0.06660000
C        0.02800000      -0.00060000       0.02650000
C        0.70260000      -0.99040000       1.06830000
C        0.02570000      -1.94130000       0.02270000
C       -1.19540000      -0.96900000       0.03800000
C        0.02040000      -3.42120000       0.00770000
O       -0.97100000      -4.09150000      -0.14820000
C        0.62900000      -0.94060000      -1.02830000
O        1.24340000      -0.93250000      -2.04450000
H        0.76450000       1.74390000      -0.24020000
H        1.79160000      -1.00150000       1.14230000
H        0.21620000      -0.99250000       2.04580000
H       -1.75290000      -0.97370000       0.97650000
H       -1.85100000      -0.96680000      -0.83260000
H        1.02190000      -3.88820000       0.13540000
