17
Properties=species:S:1:pos:R:3 gdb_47705=T pbc="F F F"
O        0.04830000      -0.03870000      -0.50760000
C       -0.00680000       1.09830000      -0.11060000
C       -1.35190000       1.77830000       0.16390000
C       -1.54010000       2.27720000       1.61910000
C       -0.90360000       3.65470000       1.86430000
O        0.29760000       3.77610000       1.08670000
C        1.20720000       2.77160000       1.31990000
O        1.75700000       2.60400000       2.36980000
C        1.30560000       1.89210000       0.10010000
H       -1.46530000       2.62140000      -0.52900000
H       -2.11110000       1.03320000      -0.08210000
H       -2.60940000       2.33530000       1.84550000
H       -1.12140000       1.54160000       2.31530000
H       -1.54730000       4.45970000       1.50190000
H       -0.69400000       3.81910000       2.92620000
H        2.13230000       1.18650000       0.16860000
H        1.43050000       2.53060000      -0.78300000
