20
Properties=species:S:1:pos:R:3 gdb_133661=T pbc="F F F"
C       -0.01330000       1.55810000      -0.00930000
C        0.03710000       0.02520000       0.04310000
C        0.87240000      -0.44680000       1.24190000
C       -1.39070000      -0.54920000       0.05490000
C       -1.45660000      -2.07630000      -0.05930000
C       -2.87600000      -2.59390000      -0.14930000
F       -3.51520000      -2.11950000      -1.23300000
F       -2.90340000      -3.93470000      -0.22760000
F       -3.60490000      -2.24270000       0.92470000
H        0.99340000       1.98520000      -0.06030000
H       -0.57330000       1.91040000      -0.88180000
H       -0.50080000       1.96380000       0.88520000
H        0.53110000      -0.32730000      -0.87430000
H        0.40110000      -0.14990000       2.18670000
H        0.99990000      -1.53340000       1.25920000
H        1.87230000      -0.00170000       1.21720000
H       -1.90220000      -0.23630000       0.97380000
H       -1.95620000      -0.11520000      -0.77750000
H       -0.93080000      -2.42510000      -0.95470000
H       -0.99530000      -2.56600000       0.80290000
