20
Properties=species:S:1:pos:R:3 gdb_101950=T pbc="F F F"
C        0.34520000       0.78930000       2.65630000
O       -0.02930000      -0.49730000       2.21030000
C        0.70170000      -0.98760000       1.10000000
C        0.46180000      -2.48530000       1.00870000
C        0.35620000      -3.31360000       2.23030000
N       -0.83800000      -3.04940000       1.40220000
C        0.27230000      -0.30370000      -0.18930000
C        1.04340000       0.79050000      -0.79440000
O        1.12520000      -0.53760000      -1.31080000
H        0.12190000       1.56870000       1.91580000
H       -0.22970000       0.99140000       3.56300000
H        1.41770000       0.83370000       2.89790000
H        1.78120000      -0.80620000       1.23860000
H        0.88490000      -2.92190000       0.10730000
H        0.70690000      -4.34160000       2.21800000
H        0.43190000      -2.80620000       3.18690000
H       -1.37510000      -2.31390000       1.85780000
H       -0.79460000      -0.37350000      -0.40640000
H        0.54380000       1.51300000      -1.43800000
H        1.94350000       1.15300000      -0.29870000
