17
Properties=species:S:1:pos:R:3 gdb_4461=T pbc="F F F"
C        0.09790000       1.52740000       0.11630000
C        0.03640000       0.04360000      -0.00480000
C        0.04820000      -0.75930000      -1.12590000
N        0.14260000      -0.27640000      -2.46030000
C        0.00850000      -2.12210000      -0.69280000
C       -0.03890000      -2.11220000       0.68400000
N       -0.13840000      -3.13250000       1.65650000
N       -0.03460000      -0.80290000       1.08850000
H        0.40610000       1.94790000      -0.84500000
H       -0.86490000       1.98450000       0.38530000
H        0.82830000       1.84690000       0.87040000
H       -0.72760000       0.14070000      -2.77470000
H        0.35800000      -1.03160000      -3.10020000
H        0.03360000      -3.00080000      -1.32120000
H        0.76560000      -3.36980000       2.05720000
H       -0.51510000      -3.97790000       1.24500000
H       -0.15690000      -0.51900000       2.04520000
