18
Properties=species:S:1:pos:R:3 gdb_54634=T pbc="F F F"
C       -0.07000000       1.50500000       0.02530000
C       -0.00180000      -0.01280000       0.05100000
O        0.02210000      -0.62820000       1.10090000
C        0.03130000      -0.70530000      -1.25510000
C        0.02240000      -2.04370000      -1.38830000
N        0.07370000      -2.51980000      -2.72160000
C       -1.17970000      -2.20170000      -3.46110000
C       -0.01750000      -1.28420000      -3.54940000
C        0.06310000      -0.06220000      -2.63530000
H        0.79340000       1.92140000      -0.50660000
H       -0.96500000       1.84340000      -0.50980000
H       -0.08920000       1.88530000       1.04690000
H       -0.01410000      -2.76210000      -0.57950000
H       -1.39870000      -2.87080000      -4.28730000
H       -2.03550000      -1.89990000      -2.86360000
H        0.57650000      -1.29480000      -4.45730000
H       -0.75540000       0.64940000      -2.79720000
H        0.99540000       0.48830000      -2.81360000
