14
Properties=species:S:1:pos:R:3 gdb_28129=T pbc="F F F"
N        0.08980000       1.34740000       0.16940000
C       -0.06820000      -0.02380000       0.05320000
C       -1.17940000      -0.83020000       0.01200000
C       -0.62130000      -2.14460000       0.00420000
C        0.73670000      -2.04460000       0.03060000
O        1.10970000      -0.72750000       0.06460000
C        1.28460000      -3.35350000      -0.00900000
C        0.18040000      -4.16180000      -0.05130000
O       -0.99920000      -3.44120000      -0.04540000
H        0.92410000       1.68510000      -0.29430000
H       -0.72470000       1.86430000      -0.13100000
H       -2.20650000      -0.50780000      -0.00880000
H        2.31220000      -3.67780000      -0.00260000
H        0.06150000      -5.23130000      -0.08000000
