23
Properties=species:S:1:pos:R:3 gdb_81969=T pbc="F F F"
C       -0.02700000       1.58920000      -0.11750000
C        0.07210000       0.06530000      -0.01270000
C        0.74770000      -0.60130000      -1.19870000
O        2.18560000      -0.58950000      -1.14720000
C        1.48350000      -1.77790000      -0.74080000
C        1.31690000      -1.92490000       0.76190000
C        2.53670000      -2.51000000       1.47790000
C        0.83590000      -0.50810000       1.23080000
C        1.96140000       0.39790000       1.74990000
H        0.95890000       2.04800000      -0.22910000
H       -0.62770000       1.87410000      -0.98810000
H       -0.50520000       2.02100000       0.76770000
H       -0.95140000      -0.33830000       0.01090000
H        0.32190000      -0.51810000      -2.19680000
H        1.65620000      -2.65140000      -1.36650000
H        0.47770000      -2.62320000       0.90020000
H        3.42990000      -1.90290000       1.30850000
H        2.37180000      -2.57910000       2.55800000
H        2.74650000      -3.52080000       1.11160000
H        0.12070000      -0.63620000       2.05110000
H        2.72110000       0.57590000       0.98660000
H        1.56280000       1.36500000       2.07060000
H        2.44800000      -0.05030000       2.62140000
