17
Properties=species:S:1:pos:R:3 gdb_71207=T pbc="F F F"
C       -0.02220000       1.53180000       0.09230000
C        0.05880000       0.03010000       0.05360000
C        0.87460000      -0.78590000      -1.01300000
C        0.81520000      -1.92970000       0.02030000
C       -0.67610000      -2.10420000       0.50250000
O       -0.33330000      -1.62800000       1.84590000
C        0.71530000      -0.90320000       1.16700000
C       -1.24010000      -0.78380000      -0.04850000
O       -2.32940000      -0.47510000      -0.43740000
H        0.97060000       1.99130000       0.05730000
H       -0.60280000       1.90470000      -0.75780000
H       -0.52340000       1.87070000       1.00500000
H        0.42540000      -0.92110000      -2.00100000
H        1.89510000      -0.40790000      -1.12070000
H        1.46670000      -2.80090000       0.02180000
H       -1.25690000      -3.02280000       0.47430000
H        1.51640000      -0.52600000       1.80120000
