17
Properties=species:S:1:pos:R:3 gdb_99449=T pbc="F F F"
C       -0.11990000       1.55330000      -0.03940000
C       -0.06970000       0.02670000      -0.08290000
C        0.82960000      -0.51520000      -1.23650000
C        2.22620000      -0.09030000      -1.09510000
C        3.36390000       0.27170000      -0.96530000
C        0.72000000      -1.97180000      -1.33320000
C        0.58400000      -3.16940000      -1.40110000
C        0.47420000      -4.60370000      -1.48030000
O       -0.56300000      -5.20400000      -1.64490000
H        0.87720000       1.97770000       0.10650000
H       -0.52980000       1.96410000      -0.96860000
H       -0.75700000       1.88970000       0.78350000
H        0.30930000      -0.37380000       0.86230000
H       -1.07200000      -0.38760000      -0.22940000
H        0.43800000      -0.09570000      -2.17600000
H        4.37340000       0.58460000      -0.85900000
H        1.44100000      -5.13670000      -1.37580000
