18
Properties=species:S:1:pos:R:3 gdb_80029=T pbc="F F F"
O        0.12890000       1.47480000      -0.09710000
C        0.04660000       0.09280000      -0.03530000
C        0.15800000      -0.66950000       1.34990000
C       -1.03390000      -0.05270000       2.09100000
C       -2.01000000      -0.04100000       1.17100000
C       -1.35370000      -0.64690000      -0.07190000
C       -0.56590000      -1.80990000       0.58580000
C       -0.00280000      -3.04810000       0.01970000
N       -1.08270000      -3.07490000       1.04340000
H       -0.49290000       1.81870000       0.55990000
H        0.74240000      -0.30130000      -0.77960000
H        1.10460000      -0.80870000       1.87150000
H       -1.05310000       0.27000000       3.12210000
H       -3.03520000       0.28900000       1.25860000
H       -1.93510000      -0.76550000      -0.98440000
H       -0.30420000      -3.40080000      -0.96310000
H        1.00320000      -3.33750000       0.31530000
H       -0.70510000      -3.31530000       1.95660000
