17
Properties=species:S:1:pos:R:3 gdb_115231=T pbc="F F F"
C       -0.11300000       1.45540000       0.03300000
O       -0.04590000       0.04540000       0.14040000
C       -1.28400000      -0.61380000       0.02070000
C       -1.68190000      -0.85180000      -1.43240000
O       -2.86950000      -1.64770000      -1.49810000
C       -3.08020000      -2.67980000      -0.64760000
O       -4.00290000      -3.41960000      -0.80460000
O       -2.24340000      -2.83350000       0.40260000
C       -1.11770000      -1.98420000       0.65580000
H        0.89820000       1.83230000       0.19870000
H       -0.45180000       1.78490000      -0.95880000
H       -0.78330000       1.88380000       0.79200000
H       -2.08400000      -0.05610000       0.53210000
H       -1.92030000       0.07180000      -1.96370000
H       -0.86070000      -1.35480000      -1.95850000
H       -0.21200000      -2.45560000       0.25630000
H       -1.02320000      -1.91760000       1.74160000
