14
Properties=species:S:1:pos:R:3 gdb_132966=T pbc="F F F"
C       -0.03190000       1.45670000      -0.00190000
N       -0.04510000      -0.00310000       0.00730000
C       -1.19390000      -0.70320000      -0.14730000
C       -1.15060000      -2.06240000      -0.13090000
F       -2.25970000      -2.79260000      -0.27980000
C        0.10430000      -2.68440000       0.04870000
N        1.22070000      -2.02760000       0.19910000
C        1.22030000      -0.64300000       0.18840000
O        2.20760000       0.04960000       0.32050000
H        0.61740000       1.81440000      -0.80410000
H       -1.04840000       1.82520000      -0.14670000
H        0.37370000       1.82770000       0.94190000
H       -2.11530000      -0.14910000      -0.27990000
H        0.14860000      -3.77390000       0.06330000
