19
Properties=species:S:1:pos:R:3 gdb_111253=T pbc="F F F"
O        0.67520000      -0.00860000       1.40190000
C        0.17930000       0.01960000       0.06690000
C       -1.22490000      -0.56450000      -0.02270000
C       -2.03400000      -0.65410000      -1.34130000
C       -1.18660000      -1.14580000      -2.50690000
O       -0.20360000      -2.08010000      -2.06320000
C       -0.57670000      -2.86080000      -0.92970000
C       -1.52630000      -2.08690000      -0.02420000
O       -2.72410000      -1.82610000      -0.81300000
H        0.88250000      -0.92210000       1.62080000
H        0.14250000       1.08010000      -0.20790000
H        0.86360000      -0.47810000      -0.62930000
H       -1.85090000      -0.09260000       0.73890000
H       -2.71720000       0.15280000      -1.62070000
H       -1.85490000      -1.60490000      -3.25070000
H       -0.63760000      -0.32810000      -2.98790000
H       -1.07400000      -3.79190000      -1.24020000
H        0.35730000      -3.12290000      -0.41720000
H       -1.74260000      -2.60770000       0.91290000
