17
Properties=species:S:1:pos:R:3 gdb_95610=T pbc="F F F"
C       -0.06080000       1.37670000      -0.44550000
N       -0.01050000       0.05760000       0.16360000
C       -1.21590000      -0.74910000       0.16440000
C       -1.09840000      -1.80260000       1.24540000
O        0.05770000      -2.62950000       1.05090000
C        1.21070000      -2.05660000       0.65030000
O        2.22120000      -2.70340000       0.61800000
C        1.20450000      -0.58860000       0.21000000
N        2.29890000      -0.00650000      -0.09400000
H        0.80660000       1.95010000      -0.11960000
H       -0.03820000       1.32720000      -1.54370000
H       -0.97890000       1.88060000      -0.13160000
H       -2.07280000      -0.10530000       0.38710000
H       -1.40550000      -1.22350000      -0.81290000
H       -1.03330000      -1.32930000       2.23200000
H       -1.95190000      -2.48340000       1.23400000
H        3.06270000      -0.66790000       0.04980000
