13
Properties=species:S:1:pos:R:3 gdb_132867=T pbc="F F F"
C       -0.03390000       1.49650000      -0.02170000
C       -0.00430000       0.00260000      -0.05090000
N       -0.02690000      -0.64470000      -1.17330000
C        0.00200000      -1.99970000      -1.13530000
F       -0.02310000      -2.61060000      -2.31360000
C        0.05280000      -2.70790000       0.00690000
O        0.07760000      -2.06370000       1.19620000
C        0.05180000      -0.68210000       1.26260000
O        0.07460000      -0.14150000       2.33490000
H        0.85120000       1.88360000       0.49460000
H       -0.07550000       1.88850000      -1.03790000
H       -0.89800000       1.84780000       0.55260000
H        0.07730000      -3.78550000       0.08800000
