19
Properties=species:S:1:pos:R:3 gdb_26096=T pbc="F F F"
C       -0.25980000       1.50060000      -0.03960000
C        0.03860000      -0.00020000       0.00780000
C        0.87560000      -0.36050000       1.24180000
O       -1.17310000      -0.76530000       0.13020000
C        0.75620000      -0.43600000      -1.25100000
N        1.70440000       0.21040000      -1.89550000
C        2.07100000      -0.61580000      -2.93440000
C        1.33510000      -1.77100000      -2.91530000
N        0.49730000      -1.64200000      -1.83030000
H        0.66390000       2.06560000      -0.18020000
H       -0.91690000       1.73790000      -0.88410000
H       -0.74600000       1.81710000       0.88750000
H        0.35820000      -0.04360000       2.15190000
H        1.03230000      -1.44160000       1.28970000
H        1.85030000       0.13010000       1.18970000
H       -1.81860000      -0.38240000      -0.47440000
H        2.83880000      -0.32910000      -3.63700000
H        1.31890000      -2.63950000      -3.55230000
H       -0.19830000      -2.28760000      -1.49510000
