23
Properties=species:S:1:pos:R:3 gdb_112609=T pbc="F F F"
C        0.04700000       1.52780000       0.07700000
C       -0.01280000       0.00490000       0.02450000
C       -1.43910000      -0.47740000      -0.22540000
O       -1.86260000      -0.00020000      -1.49590000
C        1.00320000      -0.70460000      -0.92720000
C        1.34190000      -1.71010000       0.20670000
C        2.80160000      -2.03320000       0.44380000
O        2.88920000      -2.85480000       1.60030000
C        0.63020000      -0.76920000       1.21730000
H        1.07480000       1.87520000       0.22440000
H       -0.33580000       1.96320000      -0.85040000
H       -0.55850000       1.91560000       0.90560000
H       -1.47310000      -1.57800000      -0.18950000
H       -2.09380000      -0.10260000       0.57920000
H       -2.76270000      -0.30180000      -1.64740000
H        0.59850000      -1.10280000      -1.86000000
H        1.85290000      -0.05650000      -1.16700000
H        0.79520000      -2.65090000       0.09030000
H        3.21830000      -2.54230000      -0.44180000
H        3.36810000      -1.09600000       0.57780000
H        3.81770000      -3.03690000       1.77130000
H        1.34310000      -0.14810000       1.76880000
H       -0.05060000      -1.22940000       1.93930000
