19
Properties=species:S:1:pos:R:3 gdb_95969=T pbc="F F F"
O        0.20450000       1.39160000      -0.13050000
C        0.10960000      -0.00680000       0.06190000
C        0.54480000      -0.50000000       1.45050000
O       -0.13770000      -1.73040000       1.61190000
C       -1.45560000      -1.51020000       1.12050000
C       -1.35540000      -0.49860000      -0.03670000
C       -2.47540000       0.55370000      -0.20110000
C       -2.65690000      -0.05430000      -1.60230000
O       -1.65400000      -1.05980000      -1.34070000
H        1.12600000       1.61290000      -0.29270000
H        0.66160000      -0.55380000      -0.71440000
H        1.61740000      -0.69060000       1.54450000
H        0.24620000       0.24280000       2.21030000
H       -1.86880000      -2.46360000       0.78360000
H       -2.09600000      -1.10280000       1.91990000
H       -3.32110000       0.40980000       0.47440000
H       -2.14150000       1.58920000      -0.16390000
H       -3.63520000      -0.49940000      -1.81770000
H       -2.36880000       0.59700000      -2.43590000
