15
Properties=species:S:1:pos:R:3 gdb_27627=T pbc="F F F"
C        0.16160000       1.46820000       0.06460000
C       -0.01900000       0.00080000       0.00980000
C       -1.09340000      -0.83130000      -0.06580000
N       -0.65830000      -2.16880000      -0.07610000
C        0.62870000      -2.06610000      -0.01700000
N        1.56290000      -3.06840000      -0.07140000
O        1.10840000      -0.79820000       0.04010000
C       -2.45680000      -0.46300000      -0.12060000
C       -3.61470000      -0.13550000      -0.16600000
H        0.75570000       1.83520000      -0.78050000
H       -0.81900000       1.94770000       0.03170000
H        0.66940000       1.78070000       0.98470000
H        1.17490000      -3.97610000       0.13910000
H        2.42420000      -2.87320000       0.41770000
H       -4.63760000       0.14560000      -0.20690000
