17
Properties=species:S:1:pos:R:3 gdb_61789=T pbc="F F F"
O       -0.06630000       1.56750000      -0.05130000
C        0.04680000       0.16020000      -0.04600000
C        0.73750000      -0.35810000      -1.32420000
C        0.01360000       0.07510000      -2.58120000
O       -0.25890000      -0.66420000      -3.49320000
C        0.81480000      -0.30210000       1.21440000
O        2.06110000       0.40310000       1.17340000
C        0.08060000      -0.02170000       2.44630000
C       -0.48900000       0.19600000       3.48180000
H        0.79850000       1.90030000       0.22530000
H       -0.97190000      -0.23770000       0.01070000
H        1.75320000       0.05950000      -1.35350000
H        0.81730000      -1.44960000      -1.32670000
H       -0.25420000       1.15210000      -2.60760000
H        0.99310000      -1.38560000       1.14290000
H        2.41630000       0.43750000       2.06700000
H       -1.00790000       0.39250000       4.38790000
