14
Properties=species:S:1:pos:R:3 gdb_84195=T pbc="F F F"
O        0.13850000       1.43570000      -0.04780000
C        0.07780000       0.03690000       0.07860000
C        0.65720000      -0.49350000       1.36520000
C       -0.24150000      -1.31970000       1.92220000
N       -1.43070000      -1.40500000       1.15820000
C       -1.37030000      -0.47350000       0.12770000
N       -2.26120000      -0.01850000      -0.65110000
C       -0.11110000      -2.09630000       3.10540000
N       -0.03320000      -2.72870000       4.07170000
H       -0.62320000       1.67870000      -0.59410000
H        0.58630000      -0.45450000      -0.77170000
H        1.65550000      -0.30260000       1.72500000
H       -2.30270000      -1.69760000       1.57260000
H       -3.18850000      -0.40730000      -0.48050000
