14
Properties=species:S:1:pos:R:3 gdb_48448=T pbc="F F F"
N        0.08090000       1.16460000      -0.81320000
C        0.09610000       0.05830000      -0.21560000
N        0.94070000      -0.71030000       0.55580000
C        0.06560000      -1.88790000       0.61760000
C       -1.02940000      -1.02040000      -0.07990000
C       -2.13760000      -0.51020000       0.85330000
O       -2.15790000      -0.73730000       2.03010000
C       -1.57490000      -1.51130000      -1.32980000
N       -2.03730000      -1.91470000      -2.30930000
H        0.96760000       1.66500000      -0.74640000
H        1.94550000      -0.66310000       0.62560000
H        0.39430000      -2.73730000       0.01310000
H       -0.19940000      -2.19910000       1.62930000
H       -2.89750000       0.11550000       0.34740000
