16
Properties=species:S:1:pos:R:3 gdb_84486=T pbc="F F F"
C        0.04970000       1.44910000       0.02010000
N        0.01460000       0.00450000      -0.01860000
C        0.07810000      -0.79430000      -1.17470000
C        0.07160000      -2.10410000      -0.89180000
C       -0.01730000      -2.22640000       0.58020000
C       -0.67110000      -3.29380000       1.36330000
O        0.74330000      -3.18990000       1.31740000
C       -0.02270000      -0.79460000       1.11110000
O       -0.06630000      -0.42190000       2.26110000
H        0.97340000       1.83850000      -0.42270000
H       -0.80590000       1.88220000      -0.50940000
H        0.00630000       1.74360000       1.07020000
H        0.11810000      -0.30690000      -2.13900000
H        0.11460000      -2.92240000      -1.59220000
H       -1.12820000      -3.02340000       2.31390000
H       -1.10350000      -4.14310000       0.83610000
