18
Properties=species:S:1:pos:R:3 gdb_66726=T pbc="F F F"
C       -0.10680000       1.49810000       0.07530000
C       -0.00340000       0.01170000      -0.00320000
C        0.31950000      -0.98350000      -1.14870000
C       -0.57150000      -2.01880000      -0.56060000
N        0.88630000      -1.99030000      -0.18380000
C        0.56240000      -1.02720000       0.96430000
C        1.34050000      -0.93990000       2.23000000
C       -0.91290000      -1.05320000       0.61730000
O       -2.04130000      -0.80500000       1.35030000
H        0.84950000       1.98520000      -0.14780000
H       -0.85300000       1.88380000      -0.62900000
H       -0.41550000       1.80700000       1.07940000
H        0.71210000      -0.85770000      -2.15260000
H       -1.03960000      -2.89850000      -0.98890000
H        2.37840000      -0.64650000       2.03730000
H        0.89720000      -0.19750000       2.90190000
H        1.35580000      -1.90470000       2.75040000
H       -2.13900000      -1.49690000       2.01540000
