23
Properties=species:S:1:pos:R:3 gdb_103927=T pbc="F F F"
C       -0.15150000       1.52750000      -0.06920000
C        0.11680000       0.01770000      -0.06460000
C        0.74990000      -0.52220000       1.22490000
C        2.13530000       0.07800000       1.47860000
C       -0.13710000      -0.47530000       2.53030000
C        0.00560000      -1.99800000       2.65040000
O        0.27480000      -2.66180000       3.83630000
C       -0.57000000      -2.68540000       1.44780000
C        0.80900000      -2.06030000       1.36480000
H        0.77300000       2.10970000      -0.00940000
H       -0.66760000       1.82660000      -0.98690000
H       -0.78340000       1.82180000       0.77600000
H       -0.82790000      -0.50680000      -0.24890000
H        0.77180000      -0.23930000      -0.90830000
H        2.08530000       1.15960000       1.63820000
H        2.59390000      -0.36870000       2.36680000
H        2.80320000      -0.10770000       0.62870000
H        0.35620000       0.05770000       3.34630000
H       -1.15960000      -0.09580000       2.42320000
H       -0.56400000      -2.90500000       4.24330000
H       -0.55180000      -3.76940000       1.50790000
H       -1.42120000      -2.27830000       0.90680000
H        1.67940000      -2.66360000       1.13140000
