22
Properties=species:S:1:pos:R:3 gdb_103744=T pbc="F F F"
C       -0.05870000       1.54530000      -0.02880000
C       -0.09560000       0.03010000       0.09740000
C       -1.33410000      -0.55560000      -0.55680000
O       -1.27430000      -0.24740000      -1.94660000
N        1.19970000      -0.65260000      -0.09560000
C        0.58490000      -0.66120000       1.24710000
C        1.32370000       0.14090000       2.30730000
C        0.06210000      -1.97400000       1.80220000
O        1.18650000      -2.74650000       2.21340000
H        0.91920000       1.94600000       0.23440000
H       -0.27510000       1.82600000      -1.06230000
H       -0.81390000       2.00930000       0.61660000
H       -1.39150000      -1.64190000      -0.41550000
H       -2.23150000      -0.11270000      -0.09460000
H       -2.10840000      -0.51000000      -2.34640000
H        1.06410000      -1.55090000      -0.55550000
H        1.88300000       0.96620000       1.86870000
H        0.62430000       0.54520000       3.04860000
H        2.02980000      -0.51200000       2.82590000
H       -0.60490000      -1.76650000       2.65500000
H       -0.51970000      -2.52670000       1.05430000
H        0.86070000      -3.52700000       2.67090000
