19
Properties=species:S:1:pos:R:3 gdb_31021=T pbc="F F F"
C        0.04970000       1.56940000      -0.35180000
C       -0.01410000       0.09950000       0.09450000
C       -1.41250000      -0.42970000       0.16210000
C       -2.12500000      -0.86220000       1.24830000
C       -1.81150000      -0.98280000       2.70000000
N       -3.37400000      -1.23030000       0.73390000
C       -3.32790000      -0.99830000      -0.60000000
O       -4.40390000      -1.26680000      -1.36210000
N       -2.18430000      -0.52080000      -0.99780000
H        1.08660000       1.90900000      -0.44170000
H       -0.43950000       1.69220000      -1.32180000
H       -0.46160000       2.21920000       0.36590000
H        0.56410000      -0.51080000      -0.61110000
H        0.46980000      -0.01410000       1.07090000
H       -2.47450000      -0.36670000       3.32130000
H       -1.89640000      -2.01680000       3.05930000
H       -0.78770000      -0.65410000       2.89070000
H       -4.15800000      -1.60090000       1.24310000
H       -4.15470000      -1.03210000      -2.26480000
