20
Properties=species:S:1:pos:R:3 gdb_122710=T pbc="F F F"
C       -0.03440000       1.54860000      -0.02860000
C        0.06570000       0.02130000      -0.01160000
C        0.70690000      -0.52360000      -1.27770000
O        0.76260000      -1.95130000      -1.16830000
C        1.25890000      -2.60700000      -2.22710000
N        1.37500000      -3.86210000      -2.21080000
C        1.92080000      -4.49440000      -3.38910000
C        3.11640000      -5.36700000      -3.02540000
O        3.99440000      -5.65630000      -3.79490000
H        0.95370000       2.01400000      -0.11280000
H       -0.64100000       1.90140000      -0.86980000
H       -0.49690000       1.91750000       0.89080000
H        0.65530000      -0.31370000       0.84890000
H       -0.92830000      -0.42640000       0.09620000
H        0.11980000      -0.24210000      -2.16310000
H        1.72230000      -0.12240000      -1.40290000
H        1.53700000      -1.96550000      -3.07830000
H        1.16720000      -5.17800000      -3.81200000
H        2.22150000      -3.80640000      -4.19520000
H        3.10140000      -5.73200000      -1.97530000
