17
Properties=species:S:1:pos:R:3 gdb_72968=T pbc="F F F"
C       -0.07330000       1.59550000       0.04760000
C        0.02440000       0.10000000       0.04590000
C       -1.15470000      -0.86760000      -0.02090000
O       -0.46980000      -1.83160000       0.84050000
C        0.61490000      -0.91750000       1.00450000
C        1.27050000      -0.72370000      -0.34820000
O        1.19080000      -1.74660000      -1.29600000
C        2.51680000      -0.00900000      -0.35670000
C        3.55420000       0.59970000      -0.35180000
H        0.90190000       2.04950000       0.23850000
H       -0.42550000       1.96230000      -0.92340000
H       -0.77300000       1.94640000       0.81430000
H       -2.05290000      -0.49280000       0.48030000
H       -1.40770000      -1.29060000      -0.99790000
H        1.11350000      -0.86930000       1.96610000
H        0.75120000      -2.48370000      -0.84800000
H        4.47730000       1.12480000      -0.35560000
