21
Properties=species:S:1:pos:R:3 gdb_104156=T pbc="F F F"
C        0.00660000       1.25350000      -0.24530000
O       -0.15060000      -0.14170000      -0.05610000
C       -1.47120000      -0.59030000       0.20910000
C       -2.04690000       0.03200000       1.48160000
O       -2.34760000      -0.27470000      -0.87240000
C       -2.56360000      -1.42810000      -1.67500000
C       -2.00790000      -2.58340000      -0.88060000
C       -2.13910000      -3.99990000      -1.33630000
C       -1.40800000      -2.09830000       0.20160000
H        1.01660000       1.40120000      -0.63590000
H       -0.71810000       1.64260000      -0.96970000
H       -0.08720000       1.81800000       0.69290000
H       -2.22780000       1.10090000       1.34430000
H       -2.99980000      -0.44310000       1.72540000
H       -1.35470000      -0.10560000       2.31700000
H       -3.64120000      -1.52520000      -1.86940000
H       -2.06290000      -1.33280000      -2.65220000
H       -3.19230000      -4.28890000      -1.44100000
H       -1.67640000      -4.14070000      -2.32110000
H       -1.66330000      -4.69150000      -0.63680000
H       -0.88210000      -2.65700000       0.96470000
