19
Properties=species:S:1:pos:R:3 gdb_83009=T pbc="F F F"
O        0.05830000       1.44570000       0.02180000
C       -0.01110000       0.05740000       0.05760000
C       -0.39310000      -0.74640000       1.26750000
C       -1.17300000      -0.03640000       2.37300000
C       -2.48040000       0.45090000       1.74150000
O       -2.42380000       1.78470000       1.14080000
C       -2.92440000       1.25640000      -0.12340000
C       -2.63790000      -0.18800000       0.33900000
C       -1.27670000      -0.78620000       0.00630000
H       -0.67020000       1.81370000       0.55110000
H        0.80890000      -0.34960000      -0.52720000
H        0.22470000      -1.59110000       1.55520000
H       -1.39910000      -0.74090000       3.18020000
H       -0.62570000       0.80190000       2.82030000
H       -3.33960000       0.39400000       2.41820000
H       -3.99010000       1.48550000      -0.24030000
H       -2.35880000       1.64150000      -0.97450000
H       -3.44150000      -0.91150000       0.19340000
H       -1.26610000      -1.64970000      -0.65040000
