21
Properties=species:S:1:pos:R:3 gdb_40979=T pbc="F F F"
C        0.04250000       1.69550000       0.09510000
C        1.57440000       1.83260000      -0.08340000
C        2.07600000       0.45840000      -0.63950000
C        2.33130000       0.44340000      -2.18340000
C        3.86080000       0.59420000      -2.37180000
C        4.40410000       0.17510000      -1.02600000
C        3.44640000       0.09200000      -0.10530000
C        0.93830000      -0.46000000      -0.23980000
C       -0.15380000       0.19850000       0.14190000
H       -0.31830000       2.20310000       0.99710000
H       -0.51550000       2.13360000      -0.74430000
H        1.86390000       2.66630000      -0.72910000
H        2.03640000       2.00910000       0.89360000
H        2.01260000      -0.52390000      -2.58560000
H        1.75170000       1.21200000      -2.70220000
H        4.24080000      -0.01930000      -3.19680000
H        4.15220000       1.62850000      -2.60250000
H        5.46040000       0.00400000      -0.84720000
H        3.59650000      -0.15410000       0.94120000
H        1.02800000      -1.53860000      -0.32360000
H       -1.09580000      -0.26130000       0.42160000
