13
Properties=species:S:1:pos:R:3 gdb_53785=T pbc="F F F"
C       -0.12020000       1.06870000       0.21440000
C        0.04060000      -0.40070000      -0.04030000
O       -0.43900000      -1.29400000       0.62170000
C        0.90050000      -0.82580000      -1.23950000
O        1.57200000      -0.07320000      -1.89300000
C        0.88370000      -2.35500000      -1.50240000
O        1.84820000      -3.05210000      -1.33060000
C       -0.42160000      -2.89760000      -2.07940000
O       -1.30820000      -2.15320000      -2.40850000
H       -0.68150000       1.51830000      -0.61300000
H       -0.64830000       1.23230000       1.15370000
H        0.85890000       1.55730000       0.22470000
H       -0.46060000      -4.00010000      -2.18510000
