19
Properties=species:S:1:pos:R:3 gdb_92920=T pbc="F F F"
C        0.04380000       1.58770000      -0.00510000
C        0.03260000       0.06300000      -0.04800000
C        0.76250000      -0.49900000      -1.28160000
C        1.00770000      -1.97950000      -1.15660000
C        0.88140000      -2.64180000      -0.01000000
C        0.53060000      -1.92760000       1.28590000
N        0.58080000      -0.46610000       1.21080000
C       -0.80620000      -2.36250000       1.75170000
N       -1.84680000      -2.72680000       2.09770000
H        1.06950000       1.96950000       0.07210000
H       -0.39640000       2.00590000      -0.91560000
H       -0.51990000       1.95180000       0.85720000
H       -1.00990000      -0.27990000      -0.08820000
H        0.17770000      -0.29670000      -2.18810000
H        1.72000000       0.02580000      -1.42620000
H        1.29840000      -2.51640000      -2.05610000
H        1.02670000      -3.71630000       0.04770000
H        1.23770000      -2.23890000       2.06600000
H        1.55070000      -0.17720000       1.30250000
