19
Properties=species:S:1:pos:R:3 gdb_113741=T pbc="F F F"
C        0.35650000       1.09260000       0.35820000
O       -0.34060000       0.08210000      -0.34740000
C        0.39800000      -0.49360000      -1.37290000
C        1.43540000      -1.54510000      -1.05580000
C        0.10150000      -1.92980000      -1.66940000
C       -0.96400000      -2.70090000      -0.89260000
N       -1.01690000      -4.07970000      -1.39880000
C       -0.76290000      -2.65860000       0.57230000
N       -0.61010000      -2.72810000       1.71660000
H        1.26760000       0.70020000       0.82910000
H        0.63420000       1.92500000      -0.30530000
H       -0.31770000       1.46250000       1.13300000
H        0.59070000       0.17120000      -2.21690000
H        2.32690000      -1.60680000      -1.66980000
H        1.58000000      -1.78430000      -0.00750000
H        0.09500000      -2.22380000      -2.71360000
H       -1.93870000      -2.24090000      -1.09520000
H       -0.13760000      -4.54670000      -1.19150000
H       -1.73870000      -4.59890000      -0.90690000
