17
Properties=species:S:1:pos:R:3 gdb_26333=T pbc="F F F"
C        0.07320000       1.50110000      -0.13500000
C        0.00240000      -0.01470000       0.09330000
O        0.54660000      -0.36600000       1.36060000
C       -1.40340000      -0.52710000      -0.01710000
C       -2.02210000      -1.25320000      -0.96870000
O       -3.33470000      -1.45540000      -0.56300000
C       -3.40510000      -0.83290000       0.63080000
N       -4.62740000      -0.82210000       1.24890000
N       -2.30620000      -0.26290000       1.02050000
H        1.09970000       1.84690000       0.01350000
H       -0.24700000       1.76150000      -1.14920000
H       -0.57900000       2.02080000       0.57380000
H        0.62540000      -0.52110000      -0.65270000
H       -0.14920000      -0.18920000       2.00640000
H       -1.74220000      -1.68990000      -1.91030000
H       -5.21720000      -1.61470000       1.04330000
H       -4.57690000      -0.59320000       2.23000000
