17
Properties=species:S:1:pos:R:3 gdb_37754=T pbc="F F F"
C       -0.12690000       1.38920000       0.39440000
C        1.36950000       1.09240000       0.03380000
C        2.11280000       0.22530000       1.01380000
C        2.18890000      -1.05110000       0.60930000
C        1.53700000      -1.26310000      -0.68650000
C        1.46540000      -2.40390000      -1.37650000
O       -1.57830000      -0.18170000      -0.93740000
C       -0.53540000       0.30270000      -0.61500000
C        0.93040000       0.07230000      -1.07290000
H       -0.43250000       1.21120000       1.42890000
H       -0.48110000       2.38000000       0.09110000
H        1.93480000       1.97030000      -0.28750000
H        2.51270000       0.61010000       1.94550000
H        2.66700000      -1.85660000       1.15540000
H        0.95190000      -2.46530000      -2.32910000
H        1.91310000      -3.31780000      -1.00020000
H        1.09070000       0.34560000      -2.11860000
