19
Properties=species:S:1:pos:R:3 gdb_70266=T pbc="F F F"
C       -0.54590000       1.52540000       0.30550000
C       -0.11520000       0.09970000       0.06570000
C       -0.88280000      -1.04610000       0.62770000
N        0.41670000      -0.67150000       1.21110000
C        1.54220000      -1.47490000       0.73050000
C        1.46260000      -1.51220000      -0.83230000
C        0.72620000      -0.19050000      -1.17350000
C        2.76340000      -1.64780000      -1.47240000
N        3.80390000      -1.75000000      -1.96610000
H        0.31840000       2.19860000       0.31640000
H       -1.22730000       1.86420000      -0.48270000
H       -1.05950000       1.61680000       1.26550000
H       -1.73370000      -0.85110000       1.27430000
H       -0.96450000      -1.96940000       0.05830000
H        2.46880000      -0.98440000       1.04340000
H        1.52620000      -2.47770000       1.16600000
H        0.85570000      -2.36540000      -1.14980000
H        0.13610000      -0.27440000      -2.09010000
H        1.44970000       0.61820000      -1.32000000
