18
Properties=species:S:1:pos:R:3 gdb_56003=T pbc="F F F"
C        0.12670000       0.91580000      -0.85440000
C        0.01790000      -0.01190000       0.33450000
O        0.86500000      -0.08130000       1.19500000
C       -1.21370000      -0.91940000       0.39450000
C       -0.83500000      -2.35360000      -0.01360000
C       -2.00100000      -3.37470000       0.09450000
O       -2.11390000      -3.92910000      -1.23970000
C       -1.18700000      -3.27720000      -1.97720000
N       -0.43730000      -2.41090000      -1.43680000
H        1.05420000       1.48750000      -0.80600000
H        0.09580000       0.31510000      -1.77030000
H       -0.73100000       1.59790000      -0.88550000
H       -1.56970000      -0.92900000       1.43000000
H       -2.01780000      -0.55650000      -0.25420000
H        0.01960000      -2.65720000       0.60000000
H       -1.80110000      -4.19450000       0.78830000
H       -2.95890000      -2.91200000       0.35180000
H       -1.16320000      -3.56800000      -3.02170000
