17
Properties=species:S:1:pos:R:3 gdb_31992=T pbc="F F F"
N        0.61860000       1.24810000      -0.27700000
C        0.00850000      -0.01030000       0.17080000
C        0.67700000      -0.51280000       1.40570000
N        0.15320000      -0.82080000       2.54800000
C        1.22510000      -1.26010000       3.31600000
C        2.36710000      -1.18620000       2.59310000
C        3.80250000      -1.49760000       2.82560000
O        4.27530000      -2.59900000       2.05880000
O        2.02360000      -0.70590000       1.34880000
H        1.58440000       1.07860000      -0.54150000
H        0.14470000       1.56920000      -1.11560000
H       -1.03730000       0.16890000       0.43150000
H        0.02370000      -0.81300000      -0.58820000
H        1.09660000      -1.59140000       4.33440000
H        4.41380000      -0.60030000       2.64160000
H        3.93220000      -1.77410000       3.87520000
H        4.14710000      -2.37910000       1.13020000
