17
Properties=species:S:1:pos:R:3 gdb_128365=T pbc="F F F"
C       -0.06340000       1.45060000      -0.06070000
N       -0.00150000       0.00970000       0.14030000
C       -1.16950000      -0.71390000       0.04330000
N       -2.36220000      -0.15600000       0.00140000
O       -3.27050000      -1.22490000      -0.04860000
C       -2.57640000      -2.39310000      -0.02140000
N       -3.25380000      -3.61750000      -0.06400000
C       -1.24400000      -2.14310000       0.03440000
N       -0.14990000      -3.02550000       0.00850000
H        0.93620000       1.86970000       0.07390000
H       -0.44430000       1.73180000      -1.05250000
H       -0.73120000       1.88820000       0.68530000
H        0.76920000      -0.45030000      -0.32560000
H       -3.95460000      -3.67670000       0.66940000
H       -3.73460000      -3.75130000      -0.94980000
H       -0.47820000      -3.98560000      -0.00860000
H        0.44450000      -2.90730000       0.82370000
