16
Properties=species:S:1:pos:R:3 gdb_99839=T pbc="F F F"
N       -0.02590000       0.79860000       0.24050000
H        0.08500000      -0.20070000       0.36930000
H        1.24750000       1.93120000       0.30730000
H       -0.58260000       0.95420000      -0.59440000
C       -0.69580000       1.41030000       1.39750000
C       -0.70830000       2.94380000       1.24390000
O       -1.43860000       3.18830000       0.03250000
C       -1.37860000       3.53610000       2.40290000
C       -1.96000000       3.97910000       3.35590000
C        0.70340000       3.59950000       1.04970000
O        0.87020000       4.76580000       1.29360000
O        1.64740000       2.82050000       0.53460000
H       -1.73480000       1.08260000       1.52450000
H       -0.14250000       1.15000000       2.30380000
H       -1.44950000       4.14360000      -0.10470000
H       -2.45780000       4.39730000       4.19610000
