21
Properties=species:S:1:pos:R:3 gdb_63631=T pbc="F F F"
C       -0.31800000       1.57730000       0.05190000
C       -0.04300000       0.09020000       0.09470000
C       -1.01180000      -0.75920000      -0.70240000
O        1.34120000      -0.31840000      -0.07290000
C        0.70500000      -0.55380000       1.19330000
C        1.34900000       0.14770000       2.35840000
O        2.05820000       1.30410000       2.01560000
C        0.66800000       0.17620000       3.69190000
C        1.89670000      -0.68990000       3.49380000
H       -0.26710000       1.93670000      -0.98210000
H       -1.33040000       1.77680000       0.41970000
H        0.38980000       2.13590000       0.66230000
H       -1.01890000      -0.44450000      -1.75170000
H       -0.73140000      -1.81470000      -0.66460000
H       -2.03040000      -0.65240000      -0.31450000
H        0.47610000      -1.60340000       1.39070000
H        2.47280000       1.10500000       1.16420000
H        0.78460000       1.08780000       4.26680000
H       -0.29890000      -0.30520000       3.79350000
H        1.77220000      -1.76750000       3.46180000
H        2.82390000      -0.34480000       3.93570000
