15
Properties=species:S:1:pos:R:3 gdb_25559=T pbc="F F F"
N       -0.54270000       1.13890000       0.22890000
C       -0.59460000      -0.10810000       0.40390000
O       -0.68350000      -0.93160000      -0.66430000
C       -0.85990000      -2.32530000      -0.39220000
C       -2.28700000      -2.71240000      -0.26410000
C       -3.16510000      -3.40520000      -1.03010000
N       -4.40050000      -3.45120000      -0.39740000
C       -4.21410000      -2.79130000       0.69750000
O       -2.96080000      -2.31160000       0.86420000
H       -0.45110000       1.61270000       1.12500000
H       -0.56250000      -0.63870000       1.36510000
H       -0.42350000      -2.85570000      -1.24080000
H       -0.30020000      -2.60360000       0.51060000
H       -2.99890000      -3.87290000      -1.98770000
H       -4.92290000      -2.57900000       1.48250000
