16
Properties=species:S:1:pos:R:3 gdb_45756=T pbc="F F F"
O       -0.23180000       0.00110000       0.19540000
C       -0.14740000       1.20340000       0.10470000
N       -1.19750000       2.09490000      -0.00890000
C       -0.74190000       3.42220000      -0.06030000
C        0.59160000       3.48060000      -0.00220000
C        1.13300000       2.07460000       0.10140000
C        1.98640000       1.79730000       1.32340000
C        2.96360000       0.70660000       1.33780000
O        3.38130000       2.07040000       1.20070000
H       -2.16010000       1.80160000      -0.01730000
H       -1.46180000       4.22380000      -0.14380000
H        1.19680000       4.37330000      -0.02680000
H        1.72460000       1.79940000      -0.78120000
H        1.54920000       2.11490000       2.27050000
H        3.22630000       0.22930000       2.27980000
H        3.08280000       0.08680000       0.45130000
