17
Properties=species:S:1:pos:R:3 gdb_74937=T pbc="F F F"
C        0.03960000       1.47020000       0.04970000
C       -0.00050000      -0.02390000      -0.00990000
C       -0.11100000      -0.78200000      -1.11150000
C        0.04890000      -2.24740000      -0.85240000
O        1.38550000      -2.40860000      -0.24050000
C        0.78800000      -2.24900000       1.02850000
C       -0.60300000      -2.65670000       0.56320000
O       -1.26300000      -1.60390000       1.23830000
C        0.00690000      -0.85630000       1.24620000
H        0.97300000       1.82170000       0.50800000
H       -0.03260000       1.91130000      -0.94810000
H       -0.78010000       1.86620000       0.66180000
H       -0.22590000      -0.38530000      -2.11430000
H       -0.07990000      -2.91050000      -1.70740000
H        1.37620000      -2.63450000       1.86210000
H       -1.09720000      -3.62610000       0.63610000
H        0.14390000      -0.31140000       2.18150000
