15
Properties=species:S:1:pos:R:3 gdb_84270=T pbc="F F F"
O        0.44480000       1.34890000      -0.11610000
C        0.29830000      -0.03700000       0.00130000
C        0.72820000      -0.60630000       1.35310000
C       -0.06260000      -1.63630000       1.65190000
C       -0.88770000      -2.28840000       2.73190000
O       -2.06190000      -2.16630000       1.85840000
C       -1.21930000      -1.83440000       0.72480000
C       -1.21950000      -0.44550000       0.06170000
O       -2.11060000       0.32140000      -0.17030000
H       -0.45220000       1.70930000      -0.18830000
H        0.79190000      -0.53700000      -0.84630000
H        1.45420000      -0.10550000       1.98110000
H       -0.67420000      -3.34410000       2.93840000
H       -0.99850000      -1.73940000       3.67220000
H       -1.20660000      -2.64010000      -0.02070000
