20
Properties=species:S:1:pos:R:3 gdb_68318=T pbc="F F F"
C        0.18900000       1.35740000       0.15590000
C        0.11750000      -0.14740000       0.09310000
C        0.54730000      -1.10770000      -1.04530000
N        0.01790000      -2.09790000       0.00790000
C        0.79140000      -1.20790000       0.99910000
C       -1.12960000      -1.07700000       0.15610000
C       -2.04210000      -1.20510000       1.37900000
C       -3.02410000      -0.12710000       1.42250000
C       -3.82060000       0.77320000       1.43280000
H        1.22510000       1.70520000       0.08050000
H       -0.38030000       1.81000000      -0.66300000
H       -0.22800000       1.73180000       1.09640000
H       -0.03260000      -1.10370000      -1.97310000
H        1.61670000      -1.22130000      -1.24320000
H        1.87620000      -1.32350000       0.92020000
H        0.47800000      -1.30540000       2.03970000
H       -1.75950000      -1.05880000      -0.74010000
H       -2.55490000      -2.17380000       1.31740000
H       -1.47840000      -1.21930000       2.31690000
H       -4.53140000       1.56160000       1.45370000
