15
Properties=species:S:1:pos:R:3 gdb_47079=T pbc="F F F"
O        0.01530000      -0.01400000      -0.05140000
C        0.03580000       1.18930000      -0.04680000
C       -1.14970000       2.12810000       0.29300000
O       -0.63060000       3.45480000       0.39150000
C        0.51730000       3.50640000      -0.46150000
O        1.48470000       4.43360000      -0.06870000
C        2.70380000       3.75230000       0.25360000
C        2.38640000       2.28430000       0.14650000
C        1.13510000       2.14800000      -0.28710000
H       -1.90910000       2.04440000      -0.50120000
H       -1.61440000       1.84720000       1.24180000
H        0.18090000       3.75700000      -1.48120000
H        3.49680000       4.08610000      -0.43110000
H        3.02190000       4.00720000       1.27440000
H        3.04240000       1.50310000       0.51000000
