19
Properties=species:S:1:pos:R:3 gdb_91409=T pbc="F F F"
C        0.74010000       1.47630000      -0.02410000
C        0.01940000       0.11310000       0.00910000
C        0.30210000      -0.72600000      -1.27490000
C        1.25110000      -1.88380000      -0.96750000
C        0.70840000      -2.80550000       0.14450000
C        1.41100000      -1.76890000       1.04880000
O        2.28460000      -1.39860000      -0.05250000
C        0.44540000      -0.61770000       1.29430000
O        0.04800000      -0.30590000       2.39050000
H        1.81960000       1.33210000      -0.12380000
H        0.39100000       2.06930000      -0.87540000
H        0.54300000       2.03700000       0.89340000
H       -1.05360000       0.30270000       0.11220000
H       -0.62670000      -1.12260000      -1.70070000
H        0.75220000      -0.08400000      -2.03880000
H        1.67750000      -2.34100000      -1.86390000
H       -0.37270000      -2.93500000       0.23630000
H        1.21230000      -3.77270000       0.17390000
H        1.93980000      -2.07900000       1.95130000
