18
Properties=species:S:1:pos:R:3 gdb_10969=T pbc="F F F"
C       -0.02800000       1.55020000       0.01770000
C       -0.00860000       0.04350000      -0.00880000
C        0.70090000      -0.80650000      -1.12720000
C       -0.25320000      -1.95820000      -0.66520000
C        0.24760000      -2.21160000       0.77350000
C        0.42710000      -0.72950000       1.26020000
C       -1.23540000      -0.79770000      -0.42530000
O       -2.38900000      -0.57200000      -0.64590000
H        0.97070000       1.95930000       0.20600000
H       -0.39040000       1.95870000      -0.93070000
H       -0.69180000       1.91340000       0.80950000
H        0.49230000      -0.44620000      -2.13640000
H        1.77140000      -0.98360000      -0.99100000
H       -0.49740000      -2.81200000      -1.29330000
H       -0.47550000      -2.76900000       1.37460000
H        1.18930000      -2.76710000       0.77880000
H        1.46280000      -0.50020000       1.52870000
H       -0.20260000      -0.48860000       2.12170000
