12
Properties=species:S:1:pos:R:3 gdb_25410=T pbc="F F F"
O       -0.04320000      -0.01660000      -0.09300000
C        0.00390000       1.18660000      -0.08220000
C        1.29120000       1.95740000       0.01240000
N        2.41710000       1.31380000       0.08680000
C        3.57650000       2.03110000       0.17210000
C        3.56530000       3.38420000       0.18000000
O        2.42850000       4.08430000       0.10530000
C        1.18910000       3.42740000       0.01470000
O        0.19590000       4.09270000      -0.05020000
H       -0.89970000       1.82070000      -0.14110000
H        4.50580000       1.47940000       0.23340000
H        4.44380000       4.01600000       0.24530000
