23
Properties=species:S:1:pos:R:3 gdb_75302=T pbc="F F F"
C        0.71630000       1.37340000       0.10130000
C        0.03860000       0.02270000       0.03810000
C        0.09990000      -0.69540000      -1.09010000
C       -0.46140000      -2.04560000      -1.45490000
C       -1.26220000      -2.80580000      -0.40200000
C       -2.37280000      -1.95500000       0.27560000
C       -1.38470000      -1.67420000       1.44280000
C       -0.55160000      -2.90170000       0.97720000
C       -0.65070000      -0.34100000       1.33650000
H        1.47020000       1.40240000       0.89910000
H        1.21040000       1.62630000      -0.84010000
H       -0.00460000       2.16910000       0.33110000
H        0.65270000      -0.24230000      -1.91360000
H       -1.08840000      -1.91830000      -2.35130000
H        0.37580000      -2.67940000      -1.78720000
H       -1.59130000      -3.75710000      -0.83110000
H       -2.75390000      -1.09280000      -0.27970000
H       -3.21920000      -2.56850000       0.59650000
H       -1.81190000      -1.75150000       2.44740000
H       -0.82850000      -3.81120000       1.51750000
H        0.53810000      -2.80410000       0.98850000
H        0.10320000      -0.29260000       2.13820000
H       -1.35960000       0.46780000       1.57460000
