13
Properties=species:S:1:pos:R:3 gdb_10583=T pbc="F F F"
O        0.07390000       1.36860000      -0.03680000
C        0.04550000      -0.00580000       0.04030000
C       -0.38420000      -0.73950000       1.26100000
C       -1.32130000      -0.75190000       0.02830000
C       -2.48210000       0.09030000       0.07080000
C       -3.39650000       0.87160000       0.10600000
C       -1.41900000      -1.96930000      -0.73360000
N       -1.46560000      -2.95210000      -1.34170000
H       -0.81990000       1.71050000       0.10650000
H        0.81730000      -0.45720000      -0.57410000
H        0.09880000      -1.67890000       1.50380000
H       -0.74520000      -0.16340000       2.10490000
H       -4.23400000       1.52480000       0.14080000
