19
Properties=species:S:1:pos:R:3 gdb_52885=T pbc="F F F"
C        0.05380000       1.48670000       0.05230000
C        0.03310000       0.03120000       0.03630000
C        0.02710000      -1.17330000       0.02080000
C        0.03070000      -2.61510000      -0.00340000
C       -0.47800000      -3.36180000       1.24300000
C       -1.31790000      -3.37130000       0.00870000
C       -2.62590000      -2.62190000      -0.06540000
C        1.10960000      -3.22580000      -0.73990000
C        2.00060000      -3.75090000      -1.35350000
H        1.03320000       1.86760000      -0.25770000
H       -0.69510000       1.90770000      -0.62790000
H       -0.14990000       1.87890000       1.05500000
H        0.06310000      -4.25760000       1.52350000
H       -0.79080000      -2.73180000       2.06830000
H       -1.28170000      -4.28910000      -0.57050000
H       -2.56920000      -1.67280000       0.47320000
H       -2.89630000      -2.40190000      -1.10320000
H       -3.43230000      -3.21870000       0.37480000
H        2.79150000      -4.20380000      -1.89770000
