21
Properties=species:S:1:pos:R:3 gdb_93017=T pbc="F F F"
C        0.04680000       1.50130000      -0.03450000
C       -0.02070000      -0.01270000       0.00490000
C       -0.85550000      -0.65260000       1.07920000
C        0.66680000      -0.73220000       1.15110000
C        1.33400000      -2.02660000       0.87390000
C        1.12870000      -2.71270000      -0.25150000
C        0.20050000      -2.20540000      -1.32440000
C        0.09840000      -0.66890000      -1.35950000
O       -1.02620000      -0.24970000      -2.13270000
H        0.98910000       1.84280000      -0.47980000
H       -0.77370000       1.90580000      -0.63390000
H       -0.02050000       1.92550000       0.97210000
H       -1.36420000       0.00370000       1.77770000
H       -1.38630000      -1.57300000       0.86510000
H        1.14260000      -0.10400000       1.89800000
H        1.99740000      -2.41800000       1.64040000
H        1.61170000      -3.67280000      -0.40750000
H        0.52480000      -2.56040000      -2.31100000
H       -0.81270000      -2.60680000      -1.18370000
H        1.02510000      -0.27910000      -1.81410000
H       -0.90090000      -0.56830000      -3.03230000
