13
Properties=species:S:1:pos:R:3 gdb_5136=T pbc="F F F"
C        0.01270000      -1.25400000       0.27290000
C        0.01790000      -0.06320000       0.11900000
C        0.02560000       1.38810000      -0.06420000
C        1.39620000       1.97880000      -0.13870000
C        2.09510000       2.64640000      -1.08800000
N        3.35050000       2.98150000      -0.59180000
C        3.34560000       2.50670000       0.60890000
O        2.19860000       1.88400000       0.96780000
H        0.01030000      -2.30720000       0.40820000
H       -0.49990000       1.64970000      -0.98970000
H       -0.53700000       1.86030000       0.75270000
H        1.79050000       2.90840000      -2.08890000
H        4.12800000       2.54400000       1.35050000
