20
Properties=species:S:1:pos:R:3 gdb_85958=T pbc="F F F"
C       -0.33850000       1.09720000       1.13270000
C        0.42460000      -0.07420000       0.55350000
C        0.59570000      -0.17130000      -0.97650000
C        2.11380000      -0.20130000      -0.67590000
C        2.98570000       0.86540000      -1.31600000
O        1.86480000       0.05870000       0.73570000
C        2.73400000      -1.58910000      -0.90760000
N        3.07710000      -2.23620000       0.23300000
O        2.88630000      -2.03110000      -2.03170000
H       -0.00740000       2.03790000       0.68240000
H       -1.41180000       0.97910000       0.94750000
H       -0.18420000       1.16050000       2.21450000
H        0.07810000      -1.01440000       1.00400000
H        0.18840000      -1.05270000      -1.47150000
H        0.27920000       0.72630000      -1.51280000
H        2.51580000       1.84850000      -1.22710000
H        3.96380000       0.90360000      -0.82520000
H        3.13710000       0.62540000      -2.37130000
H        2.93650000      -1.77560000       1.11710000
H        3.53110000      -3.13200000       0.17520000
