21
Properties=species:S:1:pos:R:3 gdb_114999=T pbc="F F F"
O       -0.01050000       1.40120000      -0.10410000
C        0.02760000      -0.01390000       0.01500000
C       -1.40580000      -0.53380000       0.01260000
C       -2.16350000      -0.12580000      -1.26270000
C       -3.46960000      -0.86060000      -1.40940000
C       -3.80480000      -1.92490000      -0.68060000
C       -2.89650000      -2.55450000       0.34610000
O       -2.97540000      -3.97930000       0.30250000
C       -1.45320000      -2.05740000       0.19080000
H        0.89340000       1.72670000      -0.13830000
H        0.58500000      -0.46840000      -0.82190000
H        0.52840000      -0.32050000       0.94740000
H       -1.91700000      -0.07090000       0.86870000
H       -2.33400000       0.95560000      -1.26320000
H       -1.53440000      -0.31890000      -2.14660000
H       -4.16650000      -0.47730000      -2.15210000
H       -4.77070000      -2.40860000      -0.80680000
H       -3.25590000      -2.30560000       1.35420000
H       -2.76370000      -4.24770000      -0.59880000
H       -1.01450000      -2.54210000      -0.69390000
H       -0.86190000      -2.37870000       1.05520000
