14
Properties=species:S:1:pos:R:3 gdb_6251=T pbc="F F F"
C       -0.00970000       1.39500000       0.08600000
C       -0.34360000       0.06010000      -0.55150000
O       -1.35850000      -0.14580000      -1.18430000
N        0.61760000      -0.91600000      -0.34450000
C        0.63050000      -2.20090000      -0.89380000
N        1.73810000      -2.81880000      -0.97690000
C       -0.69280000      -2.86370000      -1.26560000
O       -0.68830000      -3.86510000      -1.93480000
H        0.90040000       1.81460000      -0.35600000
H       -0.83910000       2.08010000      -0.08320000
H        0.16260000       1.28400000       1.16110000
H        1.50820000      -0.63820000       0.04610000
H        1.55830000      -3.74740000      -1.36750000
H       -1.61200000      -2.41640000      -0.86250000
