20
Properties=species:S:1:pos:R:3 gdb_50694=T pbc="F F F"
O       -0.01530000      -0.05280000      -0.02510000
C        0.03650000       1.14860000       0.05100000
C        1.31270000       1.96720000       0.01930000
C        1.37600000       2.79940000      -1.28170000
C        2.56580000       3.76660000      -1.24930000
C        2.42570000       4.82430000      -0.14120000
C        1.92780000       4.24150000       1.17450000
N        0.47430000       4.00950000       1.27670000
C        1.38720000       2.85410000       1.25510000
H       -0.88700000       1.76330000       0.14720000
H        2.15150000       1.26180000       0.03810000
H        1.45890000       2.11730000      -2.13380000
H        0.44290000       3.36170000      -1.40300000
H        3.48540000       3.18850000      -1.09000000
H        2.67370000       4.26210000      -2.21980000
H        3.39130000       5.31480000       0.02150000
H        1.72360000       5.60450000      -0.45700000
H        2.42070000       4.61250000       2.07030000
H        0.14800000       4.18590000       2.22250000
H        1.53730000       2.31620000       2.18940000
