23
Properties=species:S:1:pos:R:3 gdb_103411=T pbc="F F F"
C       -0.14080000       1.56920000      -0.07540000
C        0.04060000       0.06000000       0.04020000
C        1.02100000      -0.64350000      -0.91040000
C        2.44170000      -0.23860000      -0.63400000
C        1.78500000      -1.23870000       0.27340000
C        0.82300000      -0.56650000       1.27210000
C        1.42940000       0.37660000       2.31000000
C       -0.03640000      -1.62470000       1.95760000
O       -1.12800000      -0.97540000       2.59740000
H        0.81040000       2.10930000      -0.05030000
H       -0.63610000       1.82210000      -1.01980000
H       -0.76380000       1.95020000       0.74030000
H       -0.94610000      -0.40880000      -0.01310000
H        0.74530000      -1.12190000      -1.84330000
H        3.17810000      -0.65540000      -1.31420000
H        2.68760000       0.76140000      -0.28880000
H        2.18150000      -2.24200000       0.39000000
H        2.02730000       1.16850000       1.85240000
H        0.64450000       0.84390000       2.91080000
H        2.08550000      -0.17970000       2.99030000
H       -0.39110000      -2.34840000       1.20650000
H        0.57620000      -2.17980000       2.68810000
H       -1.66680000      -1.64450000       3.02880000
