19
Properties=species:S:1:pos:R:3 gdb_73484=T pbc="F F F"
C        0.06010000       1.49430000      -0.04640000
C        0.00710000      -0.01120000      -0.05030000
O        0.64990000      -0.55170000      -1.18650000
C       -0.00740000      -1.79930000      -1.48490000
C       -0.73400000      -2.14310000      -0.18590000
C        0.34240000      -2.21340000       0.94080000
C        0.26910000      -0.72950000       1.33520000
O       -1.15450000      -0.58350000       1.62620000
C       -1.32920000      -0.74630000       0.20400000
H        1.09830000       1.84020000      -0.02350000
H       -0.41100000       1.89920000      -0.94690000
H       -0.45850000       1.88090000       0.83430000
H       -0.69450000      -1.66400000      -2.33400000
H        0.74890000      -2.53850000      -1.76700000
H       -1.42770000      -2.98040000      -0.24700000
H        0.04840000      -2.84470000       1.78150000
H        1.32180000      -2.52830000       0.57190000
H        0.92310000      -0.33700000       2.11430000
H       -2.30360000      -0.44480000      -0.17980000
