16
Properties=species:S:1:pos:R:3 gdb_43452=T pbc="F F F"
N       -0.14920000       1.28090000      -0.01140000
C       -0.03320000       0.01590000      -0.01860000
N        1.08460000      -0.80300000      -0.02230000
C        0.77590000      -2.17350000      -0.00990000
O        1.56710000      -3.08250000       0.06000000
N       -0.59520000      -2.23510000      -0.10540000
C       -1.19800000      -0.93160000      -0.02560000
C       -2.43650000      -0.62830000       0.78010000
C       -2.47860000      -0.56450000      -0.72660000
H        0.75440000       1.75290000      -0.00790000
H        2.04050000      -0.48840000      -0.00300000
H       -1.06770000      -3.08750000       0.14320000
H       -2.92710000      -1.46190000       1.27220000
H       -2.43340000       0.30500000       1.33170000
H       -2.50430000       0.41330000      -1.19390000
H       -2.99430000      -1.35680000      -1.25820000
