23
Properties=species:S:1:pos:R:3 gdb_91735=T pbc="F F F"
C       -0.32220000       1.53130000       0.00260000
C        0.02530000       0.04310000       0.00760000
C        0.78940000      -0.45540000      -1.26490000
C        1.95350000      -1.29620000      -0.69020000
C        1.34400000      -1.85130000       0.61600000
C        0.94300000      -0.46050000       1.15340000
C        2.30250000       0.27770000       1.11680000
C        3.01220000      -0.32470000      -0.13920000
O        4.17400000      -1.07820000       0.18990000
H        0.56300000       2.16120000      -0.13580000
H       -1.01330000       1.76300000      -0.81510000
H       -0.80520000       1.83390000       0.93870000
H       -0.91620000      -0.51390000       0.08880000
H        0.14420000      -1.06150000      -1.90700000
H        1.15420000       0.37920000      -1.87470000
H        2.37980000      -2.02060000      -1.38550000
H        0.48760000      -2.51210000       0.45020000
H        2.08270000      -2.36590000       1.23510000
H        0.46030000      -0.43910000       2.13330000
H        2.20520000       1.36540000       1.07350000
H        2.89140000       0.03370000       2.00720000
H        3.26570000       0.44940000      -0.87860000
H        4.78070000      -0.49700000       0.65920000
