16
Properties=species:S:1:pos:R:3 gdb_69575=T pbc="F F F"
O       -0.03670000       1.42230000      -0.02920000
C        0.00990000       0.05180000       0.05750000
C       -0.30830000      -0.85420000      -1.12600000
C       -1.19330000      -0.92430000       0.08450000
C       -0.49800000      -1.75890000       1.14520000
C       -1.07990000      -2.45580000       2.31420000
N       -0.38040000      -3.21260000       1.25960000
C        0.65710000      -0.75370000       1.16580000
O        1.58390000      -0.56480000       1.89990000
H        0.75270000       1.72840000      -0.48970000
H       -0.71370000      -0.29920000      -1.96660000
H        0.33320000      -1.68920000      -1.39170000
H       -2.23980000      -0.65000000       0.07290000
H       -0.55930000      -2.41310000       3.26640000
H       -2.16350000      -2.51640000       2.37820000
H       -1.05830000      -3.65690000       0.64290000
