17
Properties=species:S:1:pos:R:3 gdb_109629=T pbc="F F F"
C        0.19330000       1.15830000      -0.51200000
N       -0.16280000       0.13890000       0.47530000
C       -1.44150000      -0.45620000       0.25500000
C       -1.74910000      -1.41540000      -0.88330000
O       -0.76210000      -1.81110000      -1.77320000
C       -1.62100000      -1.93670000       0.55960000
O       -0.41770000      -2.61700000       0.81980000
C       -2.76750000      -2.40330000       1.29190000
N       -3.69910000      -2.79980000       1.85280000
H        1.18480000       1.55180000      -0.27210000
H        0.19550000       0.79270000      -1.54890000
H       -0.51690000       1.98990000      -0.44540000
H        0.55760000      -0.56620000       0.55940000
H       -2.27960000       0.16640000       0.56430000
H       -2.73310000      -1.39530000      -1.34010000
H       -0.05100000      -2.20760000      -1.25180000
H       -0.57680000      -3.56380000       0.71980000
