17
Properties=species:S:1:pos:R:3 gdb_8548=T pbc="F F F"
C        0.04220000       1.55590000       0.12130000
C       -0.08000000       0.06750000      -0.04160000
C        0.31980000      -0.65790000      -1.34510000
N       -0.75940000      -1.69520000      -1.15980000
C       -0.33210000      -2.67450000      -0.09360000
C       -0.61790000      -1.65180000       1.01880000
O        0.43580000      -0.66550000       1.10780000
C       -1.35590000      -0.81870000      -0.05210000
H        1.09830000       1.84210000       0.18170000
H       -0.40570000       2.07790000      -0.73000000
H       -0.45090000       1.88860000       1.03930000
H        0.10070000      -0.06670000      -2.24110000
H        1.34090000      -1.04620000      -1.40300000
H       -1.03250000      -3.51670000      -0.07920000
H        0.69200000      -3.04910000      -0.17950000
H       -0.97930000      -1.96420000       2.00120000
H       -2.39960000      -0.51200000      -0.08900000
