21
Properties=species:S:1:pos:R:3 gdb_99933=T pbc="F F F"
C       -0.10100000       1.52450000       0.15810000
C        0.01590000       0.00740000      -0.02190000
C        0.74950000      -0.47280000      -1.31250000
C        0.01120000       0.00310000      -2.58650000
C        2.21430000       0.02550000      -1.34250000
C        0.75410000      -1.93780000      -1.29410000
C        0.75150000      -3.14870000      -1.26780000
C        0.75050000      -4.50950000      -1.24160000
C        0.74890000      -5.71710000      -1.21730000
H        0.87780000       2.00960000       0.21580000
H       -0.66260000       1.99430000      -0.65480000
H       -0.62990000       1.74680000       1.09010000
H        0.53940000      -0.42120000       0.84020000
H       -0.98610000      -0.43650000      -0.02130000
H        0.03520000       1.09400000      -2.66070000
H        0.48730000      -0.40740000      -3.48100000
H       -1.03310000      -0.32190000      -2.57880000
H        2.75190000      -0.28320000      -0.44140000
H        2.74070000      -0.38450000      -2.20860000
H        2.24850000       1.11660000      -1.41100000
H        0.74810000      -6.77840000      -1.19670000
