21
Properties=species:S:1:pos:R:3 gdb_87732=T pbc="F F F"
C       -0.05910000       1.55110000      -0.04060000
C       -0.07580000       0.05060000       0.10610000
O        1.14250000      -0.64850000      -0.17000000
C        0.63040000      -0.66610000       1.18180000
C        1.45280000      -0.00080000       2.29180000
C        1.61820000      -1.07880000       3.40310000
C        1.26060000      -0.57300000       4.80750000
C        0.72840000      -2.20610000       2.92510000
C        0.19380000      -1.97810000       1.72660000
H        0.83420000       1.98550000       0.41390000
H       -0.07320000       1.83080000      -1.09940000
H       -0.94310000       1.99210000       0.43350000
H       -0.96040000      -0.43470000      -0.31520000
H        2.40960000       0.34850000       1.89760000
H        0.92460000       0.87200000       2.69120000
H        2.65780000      -1.43490000       3.43320000
H        0.22840000      -0.20690000       4.83880000
H        1.35700000      -1.36980000       5.55270000
H        1.92040000       0.24730000       5.10870000
H        0.57050000      -3.09960000       3.52080000
H       -0.45440000      -2.64590000       1.17130000
