23
Properties=species:S:1:pos:R:3 gdb_110830=T pbc="F F F"
C       -0.31340000       1.44580000       0.19460000
C        0.20530000       0.04230000      -0.13970000
C        0.84110000      -0.63250000       1.06230000
C        0.10750000      -1.30530000       2.18980000
C       -1.10040000      -2.10020000       1.68030000
C       -0.12000000      -2.98260000       0.82160000
C       -0.00790000      -4.41220000       1.34520000
O       -0.30120000      -2.98640000      -0.58740000
C        1.05150000      -2.10920000       1.27460000
H        0.49000000       2.08940000       0.57140000
H       -0.74130000       1.93190000      -0.68810000
H       -1.09000000       1.40690000       0.96640000
H       -0.59850000      -0.57590000      -0.54350000
H        0.95530000       0.10650000      -0.93840000
H        1.70010000      -0.07550000       1.43910000
H        0.26480000      -1.02880000       3.22530000
H       -1.61200000      -2.67420000       2.45700000
H       -1.84460000      -1.53410000       1.11270000
H       -0.93870000      -4.96490000       1.16400000
H        0.80830000      -4.93660000       0.83770000
H        0.18500000      -4.42860000       2.42170000
H       -1.01000000      -3.60510000      -0.79520000
H        2.03560000      -2.50980000       1.49470000
