22
Properties=species:S:1:pos:R:3 gdb_73123=T pbc="F F F"
C        0.26190000       1.50990000      -0.13750000
C       -0.07060000       0.03030000       0.01240000
C       -1.46060000      -0.30600000       0.64640000
C       -0.76540000      -1.23390000       1.68310000
C        0.62930000      -0.76330000       1.17080000
C        1.60300000      -1.75530000       0.50330000
N        1.36260000      -1.76160000      -0.95730000
C        0.01540000      -2.20630000      -1.33420000
C        0.31280000      -0.75400000      -1.24010000
H        1.30990000       1.65390000      -0.42450000
H       -0.36130000       1.97940000      -0.90790000
H        0.09240000       2.04880000       0.80040000
H       -1.93270000       0.56680000       1.10580000
H       -2.18730000      -0.77420000      -0.02130000
H       -0.97390000      -0.99760000       2.72930000
H       -0.95720000      -2.30120000       1.54170000
H        1.14520000      -0.12980000       1.89700000
H        2.63840000      -1.43280000       0.65670000
H        1.51690000      -2.77230000       0.90300000
H       -0.05010000      -2.68170000      -2.30960000
H       -0.61710000      -2.66210000      -0.57780000
H        0.44050000      -0.18560000      -2.15880000
