17
Properties=species:S:1:pos:R:3 gdb_51219=T pbc="F F F"
N       -0.16870000       1.24540000       0.06650000
C       -0.14160000       0.00040000       0.25250000
O       -1.05560000      -0.78880000      -0.36970000
C       -0.91170000      -2.15570000      -0.19850000
C       -0.14280000      -3.14690000      -1.05050000
N       -1.00030000      -4.23970000      -0.43480000
C       -0.53670000      -4.22440000       1.01590000
C       -1.16920000      -2.85590000       1.16370000
C       -2.01830000      -3.14170000      -0.04730000
H        0.56760000       1.69460000       0.60720000
H        0.55120000      -0.56400000       0.88880000
H       -0.38030000      -3.05370000      -2.11300000
H        0.93650000      -3.27720000      -0.91510000
H       -1.06300000      -5.00540000       1.57070000
H        0.54470000      -4.34290000       1.14810000
H       -1.42950000      -2.27720000       2.04170000
H       -3.07530000      -3.13840000      -0.26790000
