17
Properties=species:S:1:pos:R:3 gdb_98034=T pbc="F F F"
O        0.13630000       1.35930000      -0.22870000
C        0.03240000      -0.03080000      -0.26520000
C       -1.36320000      -0.48080000       0.15670000
O       -2.19450000       0.35730000       0.46280000
C       -1.61480000      -1.89110000       0.16670000
C       -1.79440000      -3.08810000       0.16440000
C       -2.02880000      -4.49370000       0.16930000
C       -2.96020000      -5.09830000       1.21810000
C       -3.41040000      -5.02810000      -0.20320000
H       -0.73780000       1.66650000       0.06410000
H        0.22860000      -0.42780000      -1.27470000
H        0.76380000      -0.51180000       0.40480000
H       -1.18410000      -5.10670000      -0.12860000
H       -2.66520000      -6.05790000       1.62660000
H       -3.40280000      -4.41370000       1.93110000
H       -4.16250000      -4.29520000      -0.46770000
H       -3.43100000      -5.93840000      -0.79100000
