14
Properties=species:S:1:pos:R:3 gdb_125564=T pbc="F F F"
C       -0.01830000       1.51100000       0.00240000
C       -0.01140000       0.02500000       0.00120000
N       -0.04050000      -0.75440000      -1.05920000
N       -0.02180000      -2.09330000      -0.67400000
C        0.01770000      -2.04350000       0.62240000
O        0.05290000      -2.94310000       1.63110000
C        0.08470000      -2.18850000       2.78840000
C        0.07020000      -0.86820000       2.52070000
N        0.02700000      -0.77260000       1.12670000
H        0.88100000       1.92270000       0.47470000
H       -0.05340000       1.85260000      -1.03310000
H       -0.88890000       1.91440000       0.53210000
H        0.11560000      -2.73990000       3.71190000
H        0.08650000      -0.02050000       3.18250000
