18
Properties=species:S:1:pos:R:3 gdb_53101=T pbc="F F F"
C        0.03210000       1.52720000      -0.09900000
C        0.01090000       0.07290000      -0.06140000
C       -0.01820000      -1.13110000      -0.03300000
C       -0.04540000      -2.56310000      -0.01160000
C       -0.43180000      -3.33280000       1.23570000
C       -0.77250000      -2.62810000       2.52590000
C       -1.38610000      -3.32410000       0.05170000
C       -2.62020000      -2.59620000       0.11660000
N       -3.62420000      -2.02330000       0.16670000
H        0.64590000       1.94050000       0.70890000
H        0.44050000       1.89190000      -1.04780000
H       -0.97870000       1.93570000       0.00640000
H        0.68760000      -3.04530000      -0.65250000
H        0.09110000      -4.27750000       1.35620000
H       -1.29130000      -1.68530000       2.34100000
H       -1.41550000      -3.25590000       3.15040000
H        0.13960000      -2.40720000       3.08900000
H       -1.44360000      -4.22780000      -0.54560000
