21
Properties=species:S:1:pos:R:3 gdb_91919=T pbc="F F F"
C        0.05270000       1.53260000       0.07970000
C        0.02370000       0.01360000       0.00340000
C        0.69960000      -0.53370000      -1.26340000
C        0.96150000      -2.02470000      -1.15380000
O        2.13230000      -2.41140000      -0.42010000
C        0.85730000      -2.68520000       0.15640000
C        0.48980000      -1.86920000       1.38360000
C        1.33070000      -2.25130000       2.59550000
O        0.67340000      -0.48030000       1.16790000
H        1.08720000       1.88800000       0.11320000
H       -0.43760000       1.97240000      -0.79430000
H       -0.45930000       1.88150000       0.98030000
H       -1.02580000      -0.33190000       0.01230000
H        0.06390000      -0.33280000      -2.13300000
H        1.65310000      -0.01890000      -1.42860000
H        0.79740000      -2.61910000      -2.05240000
H        0.59090000      -3.74240000       0.20820000
H       -0.57820000      -2.06920000       1.59240000
H        2.38970000      -2.10240000       2.37000000
H        1.06120000      -1.62700000       3.45110000
H        1.17060000      -3.30030000       2.86230000
