19
Properties=species:S:1:pos:R:3 gdb_36229=T pbc="F F F"
C       -0.14430000      -1.17860000       0.44880000
C       -0.08180000      -0.01120000       0.16980000
C        0.01170000       1.40970000      -0.16480000
C        1.43310000       1.93860000      -0.17640000
C        1.99240000       2.47300000      -1.26090000
C        3.37750000       3.06230000      -1.23680000
C        3.81830000       3.29340000       0.21020000
O        3.56960000       2.14590000       1.00350000
C        2.19220000       1.86050000       1.12710000
H       -0.20410000      -2.21080000       0.69050000
H       -0.44760000       1.58810000      -1.14400000
H       -0.58720000       1.98040000       0.56110000
H        1.44410000       2.49830000      -2.20020000
H        4.08480000       2.39310000      -1.74570000
H        3.40000000       4.01120000      -1.78800000
H        4.89240000       3.48630000       0.27840000
H        3.28800000       4.16710000       0.62510000
H        1.71940000       2.53660000       1.86590000
H        2.12380000       0.84690000       1.53700000
