17
Properties=species:S:1:pos:R:3 gdb_127443=T pbc="F F F"
C       -0.37450000       1.33570000      -0.02960000
N       -0.01060000      -0.07150000      -0.00200000
N        0.14650000      -0.67990000      -1.19020000
C        0.47220000      -1.93930000      -1.19630000
C        0.65050000      -2.62900000      -2.51460000
N        0.67000000      -2.70370000      -0.05710000
C        0.51600000      -2.10700000       1.07410000
C        0.15230000      -0.70010000       1.22830000
N       -0.02000000      -0.03270000       2.31440000
H        0.38360000       1.92660000       0.49260000
H       -0.45170000       1.63340000      -1.07360000
H       -1.32380000       1.48500000       0.49300000
H        1.66520000      -3.03180000      -2.60130000
H       -0.03720000      -3.47730000      -2.59830000
H        0.46720000      -1.93350000      -3.33410000
H        0.66450000      -2.68080000       1.98970000
H        0.13610000      -0.63550000       3.12160000
