19
Properties=species:S:1:pos:R:3 gdb_54315=T pbc="F F F"
N       -0.08550000       1.02940000       0.60140000
C       -0.00320000      -0.07900000      -0.18110000
O        0.93250000      -0.31390000      -0.92680000
C       -1.18330000      -1.02110000      -0.05790000
C       -1.40540000      -1.93130000      -1.25140000
C       -0.80460000      -2.48410000       0.00890000
N       -2.24960000      -0.50770000       0.77780000
C       -3.42710000       0.07600000       0.13040000
C       -3.52140000      -1.20930000       0.87360000
H        0.72520000       1.62250000       0.66160000
H       -0.79940000       1.06590000       1.31120000
H       -2.42350000      -2.21010000      -1.50070000
H       -0.74520000      -1.76790000      -2.09420000
H        0.25420000      -2.71280000       0.00830000
H       -1.42180000      -3.11860000       0.63590000
H       -3.79970000       0.99730000       0.56810000
H       -3.47880000       0.02620000      -0.95460000
H       -3.66750000      -2.11400000       0.28820000
H       -3.95780000      -1.24380000       1.86780000
