17
Properties=species:S:1:pos:R:3 gdb_67406=T pbc="F F F"
C       -0.10180000       1.52490000       0.11850000
C       -0.02270000       0.04940000      -0.06010000
C        0.86360000      -0.94750000      -0.91890000
C        1.18440000      -1.60480000       0.43300000
N       -0.03440000      -0.96110000       1.02650000
C       -1.06200000      -1.02910000      -0.09720000
C       -0.43870000      -1.67580000      -1.33620000
C       -2.43880000      -0.97670000       0.26900000
N       -3.56660000      -0.92910000       0.52330000
H        0.85470000       1.92980000       0.46590000
H       -0.36110000       2.02260000      -0.82140000
H       -0.86650000       1.76800000       0.86200000
H        1.62380000      -0.69660000      -1.65530000
H        1.21300000      -2.69830000       0.48640000
H        2.05900000      -1.18240000       0.93310000
H       -0.87790000      -1.25690000      -2.24390000
H       -0.41380000      -2.76790000      -1.39840000
