17
Properties=species:S:1:pos:R:3 gdb_130028=T pbc="F F F"
N        0.15030000       1.23140000      -0.42590000
C        0.03570000      -0.11130000      -0.13850000
N       -1.09110000      -0.79830000      -0.06780000
C       -0.65180000      -2.02890000       0.32730000
N        0.64650000      -2.15350000       0.50050000
N        1.09700000      -0.88940000       0.18770000
C        2.46780000      -0.50580000       0.29670000
C        3.51110000      -1.48500000      -0.14400000
C        3.25900000      -0.25280000      -0.97300000
H        0.99990000       1.49450000      -0.90530000
H       -0.68040000       1.59590000      -0.87030000
H       -1.32190000      -2.86150000       0.48530000
H        2.68630000       0.12000000       1.15770000
H        4.42020000      -1.54060000       0.44250000
H        3.14830000      -2.43330000      -0.51880000
H        2.74070000      -0.38460000      -1.91640000
H        3.99180000       0.54630000      -0.96050000
