15
Properties=species:S:1:pos:R:3 gdb_33810=T pbc="F F F"
C        0.02790000      -1.18620000      -0.01390000
C        0.02320000       0.01590000       0.01280000
C        0.00860000       1.43840000       0.03660000
C        0.27860000       2.28780000      -1.17840000
C        1.18770000       2.46710000       0.01560000
C        0.43780000       3.21960000       1.12120000
N       -0.63600000       2.18640000       1.12220000
C        2.58960000       2.23290000      -0.02700000
N        3.73340000       2.05570000      -0.05160000
H        0.03950000      -2.24830000      -0.02780000
H        0.72630000       1.76720000      -2.01750000
H       -0.41100000       3.08760000      -1.43950000
H        0.97250000       3.23510000       2.07400000
H        0.12870000       4.23740000       0.85910000
H       -1.56020000       2.53180000       0.87570000
