17
Properties=species:S:1:pos:R:3 gdb_1973=T pbc="F F F"
C        0.44280000       1.40030000       0.22010000
C        0.03090000      -0.03970000      -0.00610000
C        0.49100000      -0.75010000      -1.30000000
C        1.17080000      -1.75340000      -0.34880000
C        2.68240000      -1.89230000      -0.39550000
O        3.16170000      -2.48300000       0.79540000
O        0.78470000      -0.97390000       0.81420000
H        1.50780000       1.54010000       0.01050000
H       -0.13220000       2.06750000      -0.43160000
H        0.25550000       1.69310000       1.25800000
H       -1.04370000      -0.15870000       0.18920000
H       -0.29800000      -1.14740000      -1.93900000
H        1.18810000      -0.16570000      -1.90670000
H        0.70570000      -2.74720000      -0.31360000
H        2.98190000      -2.54220000      -1.22600000
H        3.13240000      -0.89940000      -0.56380000
H        2.77330000      -1.97020000       1.51530000
