19
Properties=species:S:1:pos:R:3 gdb_54518=T pbc="F F F"
C        0.39730000       1.36490000       0.10470000
C       -0.28870000       0.02030000      -0.05470000
O       -0.98660000      -0.44100000       0.82520000
C       -0.07390000      -0.72090000      -1.33400000
C       -1.14700000      -1.71350000      -1.75910000
C        0.16460000      -2.23460000      -1.28540000
C        1.21270000      -2.49890000      -2.34920000
O        1.15540000      -1.37880000      -3.22870000
C        0.82080000      -0.22570000      -2.46280000
H        1.48650000       1.24170000       0.09880000
H        0.14820000       2.03190000      -0.72820000
H        0.09000000       1.81740000       1.04790000
H       -1.98450000      -1.79720000      -1.07740000
H       -1.37370000      -1.76490000      -2.81900000
H        0.22880000      -2.72530000      -0.32190000
H        2.20820000      -2.59670000      -1.88680000
H        1.02270000      -3.39230000      -2.95290000
H        0.33550000       0.48060000      -3.14490000
H        1.72580000       0.25410000      -2.05720000
