20
Properties=species:S:1:pos:R:3 gdb_93088=T pbc="F F F"
C       -0.08510000       1.53580000      -0.01830000
C       -0.03700000       0.01350000      -0.05740000
C        0.82390000      -0.51430000      -1.19890000
C        0.68420000      -2.01480000      -1.41360000
O        1.29480000      -2.30480000      -2.66580000
C        1.35460000      -2.83830000      -0.30540000
N        0.85480000      -2.73920000       1.05010000
C        0.51400000      -1.68070000       1.64280000
O        0.41260000      -0.38100000       1.25480000
H        0.92300000       1.94930000       0.08280000
H       -0.52970000       1.92490000      -0.93850000
H       -0.68280000       1.87570000       0.83080000
H       -1.05750000      -0.38040000      -0.17680000
H        0.51380000      -0.01230000      -2.12170000
H        1.87560000      -0.25500000      -1.02580000
H       -0.38990000      -2.26770000      -1.44340000
H        1.23900000      -3.25470000      -2.81300000
H        1.30320000      -3.89780000      -0.59100000
H        2.42320000      -2.57700000      -0.30310000
H        0.28240000      -1.73720000       2.70820000
