14
Properties=species:S:1:pos:R:3 gdb_16852=T pbc="F F F"
O       -0.00970000       0.08730000      -0.69300000
C        0.01720000       1.12880000      -0.09120000
O       -1.16190000       1.64660000       0.37470000
C       -1.20480000       2.77750000       1.20630000
C       -0.58550000       2.76800000       2.56340000
C        0.04240000       3.60020000       1.43870000
C        1.25350000       3.08290000       0.78530000
C        1.24310000       1.91940000       0.12450000
H       -2.15260000       3.28520000       1.07120000
H       -1.09730000       3.29890000       3.35820000
H       -0.04240000       1.88090000       2.86940000
H       -0.05370000       4.67820000       1.50930000
H        2.16550000       3.67010000       0.85230000
H        2.12710000       1.50620000      -0.34490000
