21
Properties=species:S:1:pos:R:3 gdb_111297=T pbc="F F F"
C       -0.00010000       1.37310000      -0.04420000
O       -0.23260000      -0.00850000       0.12470000
C        0.55840000      -0.59980000       1.11450000
C        0.13350000      -2.00710000       1.51840000
O        0.37000000      -2.88620000       0.41060000
C        1.48260000      -2.54640000       1.24960000
C        2.25950000      -3.65090000       1.88880000
C        1.99240000      -1.17960000       0.74010000
C        2.43320000      -1.11920000      -0.71570000
H        1.02860000       1.58750000      -0.36730000
H       -0.68960000       1.72450000      -0.81550000
H       -0.19230000       1.93150000       0.88560000
H        0.63040000       0.05210000       1.99870000
H       -0.62740000      -2.30680000       2.23090000
H        1.58520000      -4.42100000       2.27280000
H        2.93530000      -4.12130000       1.16560000
H        2.86750000      -3.26960000       2.71580000
H        2.75620000      -0.76380000       1.40560000
H        1.64710000      -1.50900000      -1.36500000
H        2.65650000      -0.09280000      -1.02300000
H        3.34040000      -1.71350000      -0.87240000
