20
Properties=species:S:1:pos:R:3 gdb_101792=T pbc="F F F"
C       -0.31810000       1.30140000      -0.66850000
C       -0.06930000      -0.20000000      -0.82830000
C        1.41600000      -0.55080000      -0.94630000
O        2.15970000      -0.15450000       0.20160000
C        1.65790000      -2.03930000      -1.19940000
O        1.08410000      -2.37780000      -2.46930000
C        0.93450000      -3.70620000      -2.70840000
N        0.35320000      -3.89190000      -3.93180000
O        1.23940000      -4.58450000      -1.93740000
H        0.22880000       1.69560000       0.19240000
H        0.01900000       1.85130000      -1.55420000
H       -1.38180000       1.51450000      -0.52830000
H       -0.48630000      -0.74560000       0.03190000
H       -0.58720000      -0.58480000      -1.71340000
H        1.85610000       0.01680000      -1.77560000
H        1.75760000      -0.57380000       0.97120000
H        2.73290000      -2.24480000      -1.21060000
H        1.20310000      -2.65640000      -0.41660000
H        0.34970000      -3.12820000      -4.58630000
H        0.38930000      -4.82680000      -4.29980000
