15
Properties=species:S:1:pos:R:3 gdb_84061=T pbc="F F F"
C        0.01040000       1.51310000      -0.00610000
C       -0.01190000       0.02070000      -0.00430000
C       -1.07480000      -0.80730000      -0.01680000
C       -0.72480000      -2.27100000       0.07250000
O       -1.41200000      -3.05260000      -0.87650000
C        0.78860000      -2.24040000      -0.17070000
O        1.45110000      -3.17770000      -0.52480000
C        1.24150000      -0.76910000      -0.01680000
O        2.37980000      -0.37510000       0.05390000
H        0.53630000       1.88690000       0.87920000
H        0.56520000       1.88610000      -0.87370000
H       -0.99750000       1.93390000      -0.02300000
H       -2.11080000      -0.48590000      -0.05910000
H       -0.91180000      -2.64250000       1.09670000
H       -0.84080000      -3.80610000      -1.07730000
