21
Properties=species:S:1:pos:R:3 gdb_96264=T pbc="F F F"
C       -0.27970000       1.48440000      -0.00440000
C       -0.06430000      -0.02530000       0.04880000
C        0.59860000      -0.54290000      -1.24260000
C        0.81720000      -2.04930000      -1.32320000
O        0.51190000      -2.66840000      -2.31790000
C        1.42210000      -2.75690000      -0.11480000
C        0.43590000      -2.76010000       1.07410000
C        0.47990000      -1.46610000       1.90610000
O        0.77740000      -0.29650000       1.16540000
H        0.68130000       1.99850000      -0.10530000
H       -0.91290000       1.76130000      -0.85240000
H       -0.75620000       1.83040000       0.91670000
H       -1.03880000      -0.51770000       0.18720000
H        0.02060000      -0.24990000      -2.12310000
H        1.58420000      -0.06070000      -1.31000000
H        1.64640000      -3.77860000      -0.42830000
H        2.35530000      -2.26390000       0.18060000
H       -0.57660000      -2.94790000       0.69870000
H        0.66670000      -3.59880000       1.73950000
H       -0.46760000      -1.34580000       2.45600000
H        1.28320000      -1.52970000       2.64740000
