21
Properties=species:S:1:pos:R:3 gdb_121545=T pbc="F F F"
O       -0.05130000       1.45400000      -0.05350000
C        0.02920000       0.03860000       0.00100000
C       -1.39120000      -0.51040000      -0.00530000
C       -1.42140000      -2.04970000       0.05490000
C       -2.77440000      -2.59500000       0.04790000
C       -3.90190000      -3.02210000       0.04020000
C       -5.24300000      -3.53250000       0.03820000
C       -5.82330000      -4.17140000      -1.21380000
C       -5.49620000      -5.03060000      -0.02830000
H        0.84290000       1.80720000      -0.04650000
H        0.58760000      -0.36340000      -0.86110000
H        0.55440000      -0.29690000       0.91100000
H       -1.93770000      -0.09570000       0.84790000
H       -1.90440000      -0.16490000      -0.90850000
H       -0.85950000      -2.45840000      -0.79650000
H       -0.88970000      -2.38990000       0.95470000
H       -5.94720000      -2.96740000       0.64240000
H       -6.86470000      -3.96990000      -1.43830000
H       -5.17560000      -4.23040000      -2.08030000
H       -4.62650000      -5.67380000      -0.08920000
H       -6.31090000      -5.42450000       0.56900000
