22
Properties=species:S:1:pos:R:3 gdb_104315=T pbc="F F F"
C       -0.00040000       1.52700000       0.38530000
O        0.01990000       0.11830000       0.41410000
C       -1.15230000      -0.55040000      -0.03940000
C       -2.34160000      -0.29220000       0.89910000
C       -1.50510000      -0.24850000      -1.52650000
C       -2.12240000      -1.55250000      -2.08520000
C       -1.45470000      -2.64710000      -1.27030000
N        0.00950000      -2.46230000      -1.18170000
C       -0.85200000      -2.04310000      -0.05870000
H        0.99670000       1.85920000       0.68630000
H       -0.20810000       1.92320000      -0.61890000
H       -0.73120000       1.95900000       1.08470000
H       -2.64630000       0.75800000       0.88470000
H       -3.20780000      -0.88940000       0.59770000
H       -2.08120000      -0.56010000       1.92800000
H       -2.17460000       0.60820000      -1.63780000
H       -0.57340000      -0.02860000      -2.05140000
H       -3.20540000      -1.58300000      -1.91700000
H       -1.95460000      -1.66150000      -3.16150000
H       -1.86130000      -3.65370000      -1.26680000
H        0.44700000      -3.34870000      -0.94340000
H       -0.78480000      -2.57240000       0.88670000
