19
Properties=species:S:1:pos:R:3 gdb_40516=T pbc="F F F"
C        0.16360000       1.55320000       0.07730000
N        1.15400000       0.53480000      -0.30180000
C       -0.20750000       0.11180000       0.06040000
C       -0.37160000      -0.68570000       1.31670000
C        0.63760000      -0.49760000       2.47310000
O        0.82090000      -1.92820000       2.61010000
C       -0.08200000      -2.20370000       1.52950000
C       -1.54190000      -2.35400000       2.00460000
N       -1.78420000      -0.91440000       1.69980000
H        0.36600000       2.05200000       1.02170000
H       -0.25550000       2.19670000      -0.69130000
H        1.27220000       0.51340000      -1.31050000
H       -0.87650000      -0.20080000      -0.73890000
H        1.57310000      -0.00800000       2.18220000
H        0.23680000      -0.03510000       3.38500000
H        0.32990000      -2.89890000       0.79510000
H       -2.18050000      -3.01560000       1.40770000
H       -1.60550000      -2.64590000       3.05840000
H       -2.12160000      -0.34990000       2.47300000
