14
Properties=species:S:1:pos:R:3 gdb_27942=T pbc="F F F"
N        0.05880000       1.38070000       0.23840000
C       -0.02760000       0.00380000       0.07750000
N       -1.10230000      -0.72080000       0.11260000
C       -0.67110000      -2.04910000       0.01290000
C       -1.52180000      -3.21430000       0.00750000
O       -2.72840000      -3.24810000       0.10390000
C        0.70810000      -2.06670000      -0.09720000
O        1.64120000      -3.02360000      -0.22800000
N        1.12030000      -0.76410000      -0.05820000
H        0.58190000       1.84900000      -0.49270000
H       -0.87310000       1.77240000       0.30220000
H       -0.94110000      -4.17120000      -0.10180000
H        1.20590000      -3.88400000      -0.23960000
H        2.07800000      -0.45550000      -0.01620000
