18
Properties=species:S:1:pos:R:3 gdb_64674=T pbc="F F F"
C       -0.26880000       1.73290000       0.12300000
C        0.04080000       0.24110000       0.05360000
C       -1.23240000      -0.59430000      -0.20630000
C       -1.86430000      -0.28410000      -1.48810000
N       -2.34230000      -0.02520000      -2.50800000
C        1.21550000      -0.16540000      -0.90360000
C        1.86380000      -0.90640000       0.27400000
O        2.77960000      -1.66820000       0.37340000
C        0.83990000      -0.34100000       1.27160000
H        0.64250000       2.30840000       0.31310000
H       -0.70440000       2.09150000      -0.81490000
H       -0.97730000       1.95280000       0.92960000
H       -0.99430000      -1.66460000      -0.19280000
H       -1.96170000      -0.42320000       0.59450000
H        0.96920000      -0.76970000      -1.78110000
H        1.81980000       0.68540000      -1.23510000
H        1.27620000       0.43230000       1.91250000
H        0.33590000      -1.07250000       1.91020000
