20
Properties=species:S:1:pos:R:3 gdb_92250=T pbc="F F F"
C       -0.31460000       1.45830000      -0.08250000
N        0.08670000       0.06860000      -0.01330000
C        1.20530000      -0.42330000      -0.85880000
C        1.69740000      -1.31660000       0.31980000
C        2.91940000      -0.79380000       1.12370000
C        1.96110000       0.08290000       1.96630000
O        1.44560000      -0.59390000       3.13810000
C        0.16560000      -0.88230000       2.51670000
C        0.71810000      -0.45790000       1.16660000
H        0.52160000       2.16320000       0.07550000
H       -0.75470000       1.66750000      -1.06300000
H       -1.07830000       1.66000000       0.67560000
H        0.87830000      -0.93160000      -1.77170000
H        1.92910000       0.36090000      -1.13200000
H        1.56390000      -2.38990000       0.18630000
H        3.43070000      -1.54940000       1.72500000
H        3.65980000      -0.24430000       0.53380000
H        2.21190000       1.12830000       2.16920000
H       -0.13450000      -1.93000000       2.63730000
H       -0.62730000      -0.23180000       2.91410000
