21
Properties=species:S:1:pos:R:3 gdb_87230=T pbc="F F F"
C       -0.07600000       1.41440000      -0.25530000
C        0.03730000      -0.05140000       0.10070000
C        1.34820000      -0.79750000      -0.00740000
C        0.72180000      -0.56380000       1.35050000
C        1.38040000       0.39570000       2.32750000
N        0.07820000      -1.73390000       1.91670000
C        0.98010000      -2.65860000       2.59700000
C        0.26810000      -3.87380000       3.00550000
N       -0.29490000      -4.82180000       3.34980000
H        0.83810000       1.96960000      -0.02670000
H       -0.26470000       1.53050000      -1.32800000
H       -0.90220000       1.89690000       0.27900000
H       -0.83090000      -0.64510000      -0.17070000
H        1.33070000      -1.80450000      -0.40850000
H        2.23700000      -0.22460000      -0.25290000
H        1.84090000       1.24550000       1.81870000
H        0.64750000       0.79190000       3.04120000
H        2.17140000      -0.09880000       2.90240000
H       -0.67510000      -1.46210000       2.54120000
H        1.77500000      -2.94120000       1.89670000
H        1.48170000      -2.25210000       3.49180000
