19
Properties=species:S:1:pos:R:3 gdb_51252=T pbc="F F F"
O        0.20740000      -0.16030000      -0.36330000
C        0.09380000       1.02860000      -0.22310000
C        1.25460000       2.00110000      -0.04930000
C        1.28970000       2.98520000      -1.17380000
C        0.97660000       4.28560000      -1.22660000
C        1.21620000       4.65540000      -2.69610000
C        0.55590000       3.42330000      -3.40740000
C        1.68930000       2.66900000      -2.62990000
C        2.57850000       3.91910000      -2.94970000
H       -0.90470000       1.52290000      -0.23140000
H        1.10460000       2.53220000       0.90000000
H        2.17700000       1.41410000       0.01490000
H        0.64340000       4.94800000      -0.43940000
H        1.03690000       5.68210000      -3.01330000
H       -0.47910000       3.18730000      -3.14840000
H        0.69750000       3.41810000      -4.49270000
H        1.99310000       1.65080000      -2.87280000
H        2.90920000       3.96170000      -3.99220000
H        3.40420000       4.13860000      -2.26870000
