16
Properties=species:S:1:pos:R:3 gdb_133697=T pbc="F F F"
O        0.41790000       0.91500000      -0.62220000
C       -0.10430000      -0.17410000       0.09860000
C        0.06820000      -0.18620000       1.64760000
C       -1.44830000      -0.50670000       1.77950000
C       -1.63420000      -0.09650000       0.29040000
C       -1.74490000      -1.95970000       2.05770000
F       -1.37480000      -2.30690000       3.30160000
F       -3.05640000      -2.22480000       1.94040000
F       -1.09820000      -2.78450000       1.20950000
H        1.35550000       0.76060000      -0.77430000
H        0.19840000      -1.13120000      -0.34270000
H        0.77150000      -0.89770000       2.08510000
H        0.28950000       0.81900000       2.01290000
H       -2.00550000       0.07480000       2.51590000
H       -1.96940000       0.93950000       0.20830000
H       -2.26270000      -0.73120000      -0.33620000
