23
Properties=species:S:1:pos:R:3 gdb_120742=T pbc="F F F"
C        0.10370000       0.81730000       0.45700000
C        0.03990000      -0.11470000      -0.75070000
O       -1.22490000      -0.73500000      -0.94170000
C       -1.50970000      -1.76930000      -0.05050000
C       -2.32770000      -1.51420000       1.19360000
C       -2.93550000      -2.23270000       0.00710000
C       -3.99990000      -1.54510000      -0.82820000
C       -4.07450000      -2.12970000      -2.23930000
O       -5.27100000      -1.57110000      -0.17990000
H        1.07580000       1.32090000       0.48610000
H       -0.67740000       1.58080000       0.39400000
H       -0.02290000       0.27080000       1.39510000
H        0.22110000       0.44950000      -1.67120000
H        0.82350000      -0.88580000      -0.67740000
H       -0.72480000      -2.52600000       0.00460000
H       -2.10140000      -2.07290000       2.09560000
H       -2.66610000      -0.49750000       1.36040000
H       -3.07730000      -3.30850000       0.10280000
H       -3.74960000      -0.48300000      -0.90090000
H       -4.28600000      -3.20640000      -2.20690000
H       -4.87000000      -1.64290000      -2.81010000
H       -3.12330000      -1.98670000      -2.76040000
H       -5.54110000      -2.49290000      -0.10450000
