20
Properties=species:S:1:pos:R:3 gdb_78172=T pbc="F F F"
C       -0.03160000       1.64130000      -0.01250000
C        0.01860000       0.12940000      -0.06220000
C        0.67920000      -0.68760000      -1.13460000
N        1.18390000      -0.69080000       0.25690000
C        2.49690000       0.02870000       0.28380000
C        3.55540000      -0.94620000       0.79500000
C        2.79520000       0.54320000      -1.14310000
C        1.66640000      -0.00120000      -2.02840000
O        1.61880000       0.04940000      -3.23160000
H        0.81780000       2.13470000      -0.48650000
H       -0.93800000       1.99010000      -0.51720000
H       -0.08300000       1.98210000       1.02760000
H       -0.89350000      -0.32210000       0.32760000
H        0.19020000      -1.57630000      -1.52120000
H        2.40980000       0.85950000       0.99170000
H        3.64910000      -1.80210000       0.11800000
H        4.53240000      -0.45650000       0.86510000
H        3.28030000      -1.32660000       1.78200000
H        2.84670000       1.63300000      -1.23160000
H        3.74410000       0.15590000      -1.52740000
