21
Properties=species:S:1:pos:R:3 gdb_120311=T pbc="F F F"
C       -0.44410000       1.23900000      -0.51310000
O       -0.63710000      -0.15410000      -0.54000000
C       -0.91620000      -0.69450000       0.74120000
C       -1.04880000      -2.18690000       0.59610000
C       -1.93360000      -3.09680000       1.43050000
C       -3.27120000      -2.42770000       1.77160000
C       -3.54770000      -2.22080000       0.24550000
C       -2.20190000      -2.89020000      -0.06030000
O       -2.01420000      -3.79140000      -1.09330000
H       -0.24000000       1.56320000      -1.53680000
H       -1.33650000       1.77070000      -0.14480000
H        0.40780000       1.52360000       0.12540000
H       -0.10130000      -0.44710000       1.44310000
H       -1.83340000      -0.24120000       1.14810000
H       -0.11070000      -2.67670000       0.34190000
H       -1.51140000      -3.95260000       1.94340000
H       -3.97900000      -3.12360000       2.22690000
H       -3.22700000      -1.52810000       2.39290000
H       -4.38220000      -2.83230000      -0.10370000
H       -3.68260000      -1.19630000      -0.11590000
H       -1.61170000      -3.31780000      -1.82960000
