19
Properties=species:S:1:pos:R:3 gdb_103460=T pbc="F F F"
C       -0.01280000       1.58970000       0.09660000
C       -0.00600000       0.07510000       0.10130000
C       -1.26910000      -0.58420000      -0.44210000
O       -1.50440000      -0.29190000      -1.81240000
C        1.24700000      -0.71790000      -0.21740000
O        2.42400000      -0.03810000       0.23400000
C        1.98090000      -0.11930000       1.61420000
C        0.65800000      -0.74910000       1.18460000
O       -0.05860000      -1.66830000       1.92490000
H        0.97680000       1.99220000       0.32180000
H       -0.28530000       1.96930000      -0.89490000
H       -0.72870000       1.99030000       0.82320000
H       -1.18340000      -1.67180000      -0.37780000
H       -2.12950000      -0.29700000       0.18080000
H       -1.76290000       0.63150000      -1.88250000
H        1.34300000      -1.42480000      -1.03330000
H        2.61570000      -0.81360000       2.18080000
H        1.96190000       0.85450000       2.11600000
H        0.51030000      -2.42420000       2.11110000
