13
Properties=species:S:1:pos:R:3 gdb_130054=T pbc="F F F"
N        0.02170000       1.31450000      -0.11050000
C        0.00340000      -0.05100000      -0.05440000
N       -1.10410000      -0.75850000       0.00880000
N       -0.61160000      -2.05840000      -0.03020000
C       -1.41110000      -3.20280000       0.00940000
O       -2.60760000      -3.19380000       0.07770000
C        0.75380000      -1.99650000      -0.10130000
O        1.48370000      -3.10850000      -0.14350000
N        1.18730000      -0.77000000      -0.11870000
H        0.87440000       1.74180000       0.21470000
H       -0.82520000       1.76610000       0.19900000
H       -0.78610000      -4.11060000      -0.03020000
H        2.41030000      -2.83900000      -0.20120000
