16
Properties=species:S:1:pos:R:3 gdb_43580=T pbc="F F F"
O        0.06140000      -0.01550000      -0.02670000
C        0.01160000       1.18690000      -0.05830000
C       -1.25660000       2.04670000      -0.13720000
C       -0.82190000       3.32920000      -0.90340000
C       -1.57460000       4.52880000      -0.56460000
C       -2.19370000       5.52120000      -0.28880000
C        0.68360000       3.43660000      -0.61350000
N        0.99380000       3.28260000       0.80370000
C        1.18580000       2.12300000      -0.12160000
H       -2.06960000       1.50450000      -0.62040000
H       -1.56700000       2.30120000       0.88020000
H       -0.92830000       3.13960000      -1.97990000
H       -2.74050000       6.39680000      -0.03980000
H        1.29400000       4.08400000      -1.23370000
H        1.90800000       3.68420000       0.99910000
H        2.17960000       1.74060000      -0.32000000
