20
Properties=species:S:1:pos:R:3 gdb_91044=T pbc="F F F"
C       -0.03940000       1.55570000      -0.11460000
C        0.12190000       0.04970000      -0.04650000
O        1.17060000      -0.51940000      -0.89540000
C        1.58580000      -1.42320000       0.15890000
C        2.80560000      -0.96610000       0.97010000
C        2.88300000       0.49670000       1.01350000
N        1.91470000      -0.16270000       1.92330000
C        0.69030000      -0.70640000       1.17500000
C       -0.24510000      -1.36300000       2.15600000
H       -0.16810000       1.86660000      -1.15650000
H       -0.94220000       1.84520000       0.43370000
H        0.80220000       2.10250000       0.31150000
H       -0.83660000      -0.41330000      -0.32990000
H        1.51050000      -2.47690000      -0.11860000
H        3.58190000      -1.62540000       1.34550000
H        3.70400000       0.93610000       1.57250000
H        2.56170000       1.05860000       0.14720000
H       -0.70820000      -0.60840000       2.80180000
H       -1.03810000      -1.91280000       1.63940000
H        0.29940000      -2.05650000       2.80330000
