11
Properties=species:S:1:pos:R:3 gdb_23627=T pbc="F F F"
F        0.07840000       0.06950000       0.00250000
C       -0.05800000       1.38320000       0.01130000
N       -1.18930000       1.93200000       0.02980000
C       -1.22900000       3.34720000       0.03830000
N       -2.35900000       3.92810000       0.05600000
N       -0.00050000       4.07310000       0.02480000
C        1.09010000       3.41630000       0.00640000
N        1.14960000       2.03330000      -0.00150000
H       -2.20010000       4.93640000       0.05880000
H        2.05260000       3.92260000      -0.00430000
H        2.01730000       1.52210000      -0.01620000
