20
Properties=species:S:1:pos:R:3 gdb_55848=T pbc="F F F"
C        0.12220000       1.41890000      -0.09690000
C       -0.01130000      -0.07290000       0.07100000
N       -0.50450000      -0.72580000       1.03980000
O        0.50600000      -0.70180000      -1.01280000
C        0.46060000      -2.10960000      -1.01460000
C       -0.68350000      -2.80540000      -1.71120000
C        0.70970000      -2.78360000      -2.32170000
C        0.97390000      -1.98110000      -3.57450000
O        1.48480000      -3.94910000      -2.19670000
H       -0.28350000       1.94740000       0.76700000
H        1.17440000       1.69110000      -0.22330000
H       -0.40600000       1.74590000      -0.99790000
H       -0.83050000      -0.09180000       1.76580000
H        0.86150000      -2.56730000      -0.11840000
H       -1.03950000      -3.72980000      -1.27060000
H       -1.44250000      -2.18030000      -2.16910000
H        0.41990000      -1.04030000      -3.56680000
H        2.04120000      -1.75330000      -3.65740000
H        0.67570000      -2.54790000      -4.46470000
H        1.16610000      -4.58300000      -2.84910000
