19
Properties=species:S:1:pos:R:3 gdb_85337=T pbc="F F F"
C        0.01580000       1.51500000       0.06880000
C        0.01230000       0.00130000      -0.06570000
C        0.85520000      -0.51790000      -1.22780000
C        0.98480000      -2.01880000      -1.15960000
C        1.26550000      -2.76210000      -2.43010000
C        0.87170000      -2.61530000       0.03400000
C        0.73060000      -1.85900000       1.29460000
O        0.87570000      -2.35150000       2.38440000
O        0.48130000      -0.52370000       1.19210000
H        1.03420000       1.88440000       0.22250000
H       -0.39220000       1.97830000      -0.83470000
H       -0.59300000       1.82120000       0.92290000
H       -1.01930000      -0.35370000      -0.20510000
H        0.39080000      -0.21420000      -2.17340000
H        1.85410000      -0.05770000      -1.21140000
H        2.18060000      -2.38460000      -2.90390000
H        1.38340000      -3.83420000      -2.25680000
H        0.45670000      -2.61210000      -3.15620000
H        0.97540000      -3.68710000       0.15950000
