14
Properties=species:S:1:pos:R:3 gdb_131283=T pbc="F F F"
O       -0.02630000       1.33290000       0.07840000
C        0.01150000       0.00100000      -0.03170000
N        0.01810000      -0.71110000      -1.13610000
C        0.05910000      -1.98670000      -0.64380000
N        0.07490000      -2.09400000       0.66850000
N        0.03540000      -0.78100000       1.06430000
C        0.08770000      -0.40380000       2.46700000
C        1.44700000      -0.28120000       2.98920000
C        2.55910000      -0.17100000       3.42710000
H       -0.05490000       1.68700000      -0.81960000
H        0.07240000      -2.85740000      -1.28220000
H       -0.44550000       0.54600000       2.57460000
H       -0.46800000      -1.16550000       3.02130000
H        3.54520000      -0.08040000       3.81150000
