13
Properties=species:S:1:pos:R:3 gdb_130236=T pbc="F F F"
N        0.09570000       1.40120000       0.08370000
C       -0.01620000       0.03590000      -0.03630000
N       -1.20480000      -0.47600000      -0.10180000
O       -1.24430000      -1.87330000      -0.34660000
C       -0.12430000      -2.63490000      -0.45970000
N       -0.14900000      -3.88210000      -0.68420000
C        1.14260000      -1.89350000      -0.29670000
O        2.24540000      -2.62320000      -0.36080000
N        1.20160000      -0.62610000      -0.10260000
H        0.93030000       1.71090000       0.55710000
H       -0.75270000       1.87640000       0.35300000
H       -1.11350000      -4.21020000      -0.76560000
H        2.99160000      -2.01470000      -0.24400000
