17
Properties=species:S:1:pos:R:3 gdb_83514=T pbc="F F F"
N       -0.01610000       1.36450000       0.06880000
C       -0.02790000      -0.00210000       0.04030000
N       -1.08020000      -0.74170000       0.01520000
C       -0.54620000      -2.12290000      -0.00640000
C        0.11780000      -2.30850000      -1.38590000
O        1.28100000      -1.44750000      -1.30550000
C        1.23340000      -0.85660000       0.00950000
C        0.73150000      -2.04180000       0.86580000
O        0.42840000      -1.77840000       2.21080000
H        0.79860000       1.82260000      -0.30710000
H       -0.89260000       1.80790000      -0.16840000
H       -1.28940000      -2.87010000       0.26730000
H        0.44520000      -3.33710000      -1.57840000
H       -0.53770000      -1.97390000      -2.19610000
H        2.19800000      -0.39660000       0.22710000
H        1.38970000      -2.91380000       0.75140000
H        1.25540000      -1.69850000       2.69570000
