20
Properties=species:S:1:pos:R:3 gdb_88671=T pbc="F F F"
O       -0.10930000       1.40640000       0.40120000
C       -0.05540000       0.07680000      -0.03000000
C       -0.38580000      -1.03320000       0.94950000
C       -1.35490000      -0.65030000      -0.17060000
N       -2.62340000      -0.02670000       0.03200000
C       -2.92130000       0.94080000       1.11110000
C       -4.37310000       0.39570000       1.11880000
O       -5.29040000       1.12740000       0.34060000
C       -3.77920000      -0.85890000       0.42630000
H        0.63390000       1.55520000       0.99510000
H        0.70840000      -0.12160000      -0.78250000
H        0.15030000      -1.97460000       0.89380000
H       -0.63790000      -0.71060000       1.95420000
H       -1.39750000      -1.34980000      -1.00260000
H       -2.40250000       0.73550000       2.05920000
H       -2.77620000       1.99110000       0.84690000
H       -4.84280000       0.24750000       2.09170000
H       -4.87100000       1.28790000      -0.51300000
H       -4.35240000      -1.28900000      -0.40300000
H       -3.52240000      -1.65380000       1.14560000
