13
Properties=species:S:1:pos:R:3 gdb_52510=T pbc="F F F"
C        0.01660000       1.47070000       0.00960000
C        0.00140000       0.02080000       0.00210000
C       -0.01660000      -1.18670000      -0.00410000
C       -0.01840000      -2.61990000      -0.01160000
O       -1.01870000      -3.31170000      -0.00580000
C        1.36800000      -3.29540000      -0.02870000
O        2.39140000      -2.66560000      -0.03620000
C        1.37050000      -4.84630000      -0.03600000
O        2.40910000      -5.44880000      -0.05120000
H        1.04020000       1.85750000       0.00100000
H       -0.50920000       1.86500000      -0.86680000
H       -0.49080000       1.85560000       0.90090000
H        0.38290000      -5.33800000      -0.02630000
