18
Properties=species:S:1:pos:R:3 gdb_93138=T pbc="F F F"
C        0.18800000       1.59220000      -0.00200000
C        0.05070000       0.07390000      -0.03570000
O        0.87410000      -0.36080000      -1.12180000
C        0.95160000      -1.65910000      -1.51010000
N        0.69950000      -2.76200000      -0.96100000
C        0.28930000      -3.02530000       0.39880000
C        0.52810000      -2.00040000       1.48910000
O        1.69830000      -1.17600000       1.41470000
C        0.41920000      -0.55480000       1.29840000
H        1.21780000       1.87280000       0.23750000
H       -0.07260000       2.01770000      -0.97370000
H       -0.47670000       2.01800000       0.75530000
H       -0.99170000      -0.19490000      -0.26470000
H        1.33200000      -1.66700000      -2.53260000
H       -0.78080000      -3.28250000       0.40780000
H        0.80260000      -3.94850000       0.69940000
H        0.32780000      -2.39150000       2.48980000
H        0.13200000       0.05510000       2.15740000
