20
Properties=species:S:1:pos:R:3 gdb_10558=T pbc="F F F"
C       -0.08260000       1.62140000       0.14440000
C       -0.06970000       0.09850000       0.29880000
C       -1.34900000      -0.55890000      -0.23930000
C       -1.37350000      -2.06900000      -0.08940000
C       -1.65500000      -2.69440000       1.27370000
C       -2.69150000      -2.78560000       0.20790000
C       -0.45620000      -2.84450000      -0.96020000
O        0.27630000      -2.37240000      -1.79560000
H        0.83700000       2.06820000       0.53500000
H       -0.17100000       1.91090000      -0.90850000
H       -0.92540000       2.07080000       0.68240000
H        0.79160000      -0.31980000      -0.23120000
H        0.05390000      -0.16380000       1.35760000
H       -2.22110000      -0.13570000       0.27540000
H       -1.46060000      -0.31280000      -1.30210000
H       -1.11180000      -3.59380000       1.54510000
H       -1.80860000      -2.00060000       2.09260000
H       -3.57020000      -2.15430000       0.27500000
H       -2.86570000      -3.74790000      -0.26240000
H       -0.49740000      -3.94810000      -0.79300000
