15
Properties=species:S:1:pos:R:3 gdb_17879=T pbc="F F F"
O        0.00090000       0.02630000      -0.03130000
C       -0.01310000       1.21390000       0.08740000
C       -1.08260000       2.32620000       0.00290000
C       -1.21530000       3.00310000       1.36860000
O       -0.00460000       2.88190000       2.10630000
C        1.17960000       3.03500000       1.33220000
C        1.02360000       2.35410000      -0.02900000
N       -0.05130000       3.11950000      -0.76780000
H       -2.03880000       2.14620000      -0.49110000
H       -1.48690000       4.05760000       1.21280000
H       -1.98630000       2.51990000       1.97590000
H        1.41810000       4.09620000       1.16870000
H        1.98110000       2.57260000       1.91570000
H        1.96870000       2.19940000      -0.55190000
H       -0.06190000       2.80720000      -1.73770000
