20
Properties=species:S:1:pos:R:3 gdb_103516=T pbc="F F F"
C        0.12060000       1.36990000      -0.04180000
O       -0.00250000      -0.02860000       0.07850000
C       -1.31860000      -0.57200000       0.01020000
C       -2.14870000      -0.16800000       1.23930000
C       -2.06650000      -0.26460000      -1.29050000
C       -2.43690000      -1.36760000      -1.94100000
C       -1.92600000      -2.58650000      -1.24380000
N       -0.43450000      -2.60720000      -1.21710000
C       -1.18550000      -2.09890000      -0.05470000
H        1.18530000       1.59530000       0.06020000
H       -0.21600000       1.73840000      -1.02110000
H       -0.42270000       1.91900000       0.74130000
H       -2.40730000       0.89450000       1.22380000
H       -3.08390000      -0.73470000       1.26640000
H       -1.58310000      -0.37390000       2.15430000
H       -2.26490000       0.74980000      -1.61580000
H       -2.99020000      -1.39980000      -2.87250000
H       -2.47040000      -3.52430000      -1.25710000
H       -0.12430000      -3.55310000      -0.99690000
H       -1.15250000      -2.65330000       0.87750000
