18
Properties=species:S:1:pos:R:3 gdb_90496=T pbc="F F F"
C       -0.07200000       1.48530000      -0.07060000
C       -0.04150000      -0.01630000      -0.05070000
C       -0.86760000      -0.78130000       0.93260000
C       -1.71990000      -1.97520000       0.69740000
O       -1.69770000      -2.72130000      -0.26030000
N        0.63620000      -0.82080000       1.03580000
C        1.14300000      -1.78080000      -0.01190000
C        0.58400000      -0.89000000      -1.15860000
O       -0.18100000      -1.41560000      -2.19280000
H        0.88960000       1.88560000      -0.40800000
H       -0.84600000       1.83980000      -0.76000000
H       -0.28130000       1.89480000       0.92180000
H       -1.25530000      -0.17300000       1.74690000
H       -2.43440000      -2.17290000       1.52340000
H        2.23230000      -1.82220000       0.04460000
H        0.73910000      -2.79230000       0.05790000
H        1.39340000      -0.32150000      -1.62780000
H       -0.82840000      -2.00940000      -1.78080000
