18
Properties=species:S:1:pos:R:3 gdb_34146=T pbc="F F F"
N        0.00770000      -1.13480000       0.01880000
C       -0.01710000       0.02190000       0.03510000
C       -0.04000000       1.46210000       0.04130000
C       -0.67300000       2.40520000       1.09580000
C       -0.05760000       3.34090000       0.02870000
C        1.20510000       2.42070000      -0.04480000
C        1.74180000       2.40590000      -1.47370000
C        0.40050000       2.38810000      -2.26290000
C       -0.58820000       2.39680000      -1.09990000
H       -1.76290000       2.38290000       1.16890000
H       -0.20740000       2.40370000       2.08420000
H       -0.06460000       4.43060000       0.01580000
H        1.90780000       2.41800000       0.78970000
H        2.34820000       3.29120000      -1.68740000
H        2.36030000       1.52580000      -1.67150000
H        0.27530000       3.26360000      -2.90700000
H        0.29050000       1.49820000      -2.88940000
H       -1.65870000       2.37040000      -1.30870000
