15
Properties=species:S:1:pos:R:3 gdb_5105=T pbc="F F F"
C       -0.01730000       1.44510000       0.03170000
N        0.00150000      -0.00090000       0.04920000
C       -0.01970000      -0.75420000      -1.10760000
O       -0.05450000      -0.38600000      -2.25310000
O        0.00730000      -2.07060000      -0.70510000
C        0.04400000      -2.09750000       0.67440000
C        0.04140000      -0.85030000       1.16500000
C        0.07210000      -0.35280000       2.56620000
H        0.88100000       1.86210000       0.49870000
H       -0.04900000       1.74860000      -1.01580000
H       -0.89980000       1.83950000       0.54600000
H        0.06840000      -3.06520000       1.14320000
H        0.10090000      -1.19710000       3.25850000
H        0.95300000       0.27100000       2.75750000
H       -0.81280000       0.24890000       2.80400000
