14
Properties=species:S:1:pos:R:3 gdb_129186=T pbc="F F F"
N       -0.03290000       1.34770000       0.01050000
C       -0.02320000       0.06580000       0.00330000
N        1.13110000      -0.73800000      -0.00790000
N        1.22360000      -2.07110000      -0.01590000
C        0.09980000      -2.74310000      -0.01310000
C       -1.18420000      -2.07470000      -0.00190000
C       -1.24040000      -0.72870000       0.00600000
C        0.17130000      -4.16510000      -0.02140000
C        0.16930000      -5.36860000      -0.02810000
H        0.91130000       1.73790000       0.00710000
H        2.02970000      -0.27600000      -0.01060000
H       -2.08240000      -2.68090000       0.00000000
H       -2.17360000      -0.17910000       0.01450000
H        0.18760000      -6.43040000      -0.03420000
