16
Properties=species:S:1:pos:R:3 gdb_4826=T pbc="F F F"
C        0.47540000       1.29490000       0.07500000
C        0.01460000      -0.11890000      -0.04910000
N       -0.65210000      -0.62730000      -1.06490000
C       -0.84360000      -1.95520000      -0.75720000
C       -0.29760000      -2.26130000       0.46230000
C       -0.21780000      -3.51180000       1.26770000
O        1.11220000      -3.80630000       1.69630000
N        0.24590000      -1.06910000       0.90570000
H        1.56660000       1.36390000       0.15490000
H        0.16010000       1.84190000      -0.81410000
H        0.04820000       1.78810000       0.95570000
H       -1.37290000      -2.61780000      -1.42630000
H       -0.79390000      -3.42820000       2.19730000
H       -0.65790000      -4.33580000       0.68850000
H        1.65570000      -3.87830000       0.90380000
H        0.78120000      -0.96300000       1.75200000
