16
Properties=species:S:1:pos:R:3 gdb_4575=T pbc="F F F"
C       -0.02810000       1.51210000      -0.00950000
C       -0.01460000       0.00540000       0.02840000
N       -0.22700000      -0.63130000      -1.13260000
C       -0.22490000      -1.95870000      -1.14660000
C       -0.01430000      -2.76250000      -0.01540000
N       -0.08960000      -4.15410000      -0.09310000
C        0.21040000      -2.09510000       1.19080000
C        0.20910000      -0.70680000       1.20790000
H        0.16500000       1.94100000       0.97730000
H        0.72930000       1.88870000      -0.70490000
H       -0.99640000       1.88180000      -0.36310000
H       -0.40190000      -2.43360000      -2.11190000
H        0.08810000      -4.53190000      -1.01300000
H        0.44170000      -4.64620000       0.61090000
H        0.38060000      -2.65930000       2.10360000
H        0.38400000      -0.17590000       2.13800000
