22
Properties=species:S:1:pos:R:3 gdb_61824=T pbc="F F F"
C       -0.52780000       2.59460000       2.08550000
C       -0.07130000       1.49530000       1.12010000
C        0.84100000       2.10350000       0.02810000
C        1.22350000       1.11160000      -1.04710000
O        1.09280000       1.30890000      -2.23010000
N        0.67050000       0.37770000       1.73750000
C        0.67630000       0.11450000       3.17270000
C       -0.00300000      -0.82230000       2.23570000
C       -1.50840000      -0.96540000       2.23790000
H        0.32350000       3.00830000       2.63630000
H       -0.99810000       3.40990000       1.52780000
H       -1.25900000       2.22980000       2.81220000
H       -0.96060000       1.08650000       0.62200000
H        0.36630000       2.96400000      -0.45240000
H        1.76620000       2.44180000       0.51570000
H        1.64610000       0.15960000      -0.66310000
H        1.64790000      -0.12150000       3.60140000
H        0.03530000       0.70490000       3.82330000
H        0.52020000      -1.73990000       1.96610000
H       -2.01120000      -0.06610000       2.60440000
H       -1.88920000      -1.18100000       1.23300000
H       -1.80270000      -1.79860000       2.88440000
