19
Properties=species:S:1:pos:R:3 gdb_38283=T pbc="F F F"
C       -0.07700000       1.61810000      -0.16000000
C        1.45230000       1.33060000      -0.02780000
O        1.08880000       0.25110000       0.91350000
C       -0.04140000       0.06320000      -0.01960000
C        0.69800000      -0.33380000      -1.30380000
C        1.71540000       0.52950000      -1.30930000
C        2.69360000       0.29460000      -2.41770000
C        1.92170000      -0.75760000      -3.28820000
C        0.76340000      -1.34310000      -2.40720000
H       -0.48870000       2.10900000       0.72530000
H       -0.45270000       2.05500000      -1.08780000
H        2.17450000       2.04550000       0.36320000
H       -0.86190000      -0.53080000       0.37980000
H        2.94820000       1.19140000      -2.99440000
H        3.64400000      -0.10620000      -2.03840000
H        1.48870000      -0.25290000      -4.15690000
H        2.58290000      -1.53940000      -3.67050000
H        1.00650000      -2.34410000      -2.02400000
H       -0.16660000      -1.45140000      -2.97740000
