18
Properties=species:S:1:pos:R:3 gdb_80255=T pbc="F F F"
C       -0.08100000       1.54720000      -0.00750000
C        0.04570000       0.02900000       0.01850000
C        1.09650000      -0.59700000      -0.92770000
O        2.34890000      -0.05810000      -0.35930000
C        2.17400000      -0.07470000       0.99980000
N        3.01790000       0.28590000       1.86630000
C        0.76750000      -0.61200000       1.25200000
C        0.83700000      -2.06810000       0.79500000
C        1.02630000      -2.06170000      -0.52810000
H        0.88610000       2.04340000       0.10330000
H       -0.52630000       1.87810000      -0.95170000
H       -0.73170000       1.89080000       0.80310000
H       -0.92910000      -0.44200000      -0.12700000
H        1.08250000      -0.33880000      -1.98440000
H        3.88310000       0.59140000       1.41550000
H        0.39050000      -0.41230000       2.25150000
H        0.82020000      -2.91580000       1.46660000
H        1.19710000      -2.90000000      -1.18920000
