17
Properties=species:S:1:pos:R:3 gdb_32014=T pbc="F F F"
C        0.45920000       0.66490000      -0.71330000
C       -0.36420000       0.36660000       0.55170000
C        0.46630000      -0.20440000       1.66040000
N        0.67510000       0.41560000       2.76270000
C        1.47720000      -0.23340000       3.69350000
C        2.02640000      -1.44500000       3.48650000
C        1.78740000      -2.13510000       2.23910000
N        2.24720000      -3.27280000       1.92670000
O        0.96370000      -1.42690000       1.34490000
H        0.93820000      -0.24170000      -1.09170000
H       -0.18840000       1.06390000      -1.49830000
H        1.23850000       1.40430000      -0.50670000
H       -0.83320000       1.27420000       0.93540000
H       -1.15640000      -0.35190000       0.30970000
H        1.63670000       0.31030000       4.61900000
H        2.65010000      -1.94290000       4.21650000
H        1.93870000      -3.54960000       0.99460000
