15
Properties=species:S:1:pos:R:3 gdb_25638=T pbc="F F F"
C        0.02470000       1.45160000       0.00480000
C        0.01430000      -0.00280000      -0.01990000
C       -0.02390000      -1.21040000      -0.04620000
C        0.00090000      -2.62200000      -0.06330000
C        1.12390000      -3.39550000       0.14590000
O        2.40910000      -3.09300000       0.40360000
N        0.72850000      -4.69700000       0.04790000
C       -0.62500000      -4.67520000      -0.21830000
N       -1.08880000      -3.45920000      -0.29080000
H        0.69250000       1.86670000      -0.75910000
H       -0.97910000       1.84640000      -0.18760000
H        0.34900000       1.83960000       0.97760000
H        2.47110000      -2.12910000       0.43140000
H        1.32710000      -5.49920000       0.15310000
H       -1.19330000      -5.58400000      -0.34430000
