18
Properties=species:S:1:pos:R:3 gdb_56332=T pbc="F F F"
N        0.11530000       1.15110000      -0.00520000
C       -0.03670000      -0.15840000      -0.35380000
O        0.81840000      -0.77790000      -0.95490000
C       -1.37900000      -0.77810000       0.04310000
C       -1.26310000      -2.28950000       0.25370000
C       -2.62580000      -2.95320000       0.40560000
O       -2.48200000      -4.34560000       0.71510000
C       -2.65370000      -5.23320000      -0.28160000
O       -2.52010000      -6.40980000      -0.13180000
H        0.95990000       1.62450000      -0.28150000
H       -0.58890000       1.66530000       0.49290000
H       -1.78340000      -0.28390000       0.93460000
H       -2.08230000      -0.56360000      -0.77410000
H       -0.72440000      -2.72060000      -0.59520000
H       -0.66300000      -2.50180000       1.14480000
H       -3.19280000      -2.52000000       1.23540000
H       -3.22520000      -2.83290000      -0.50750000
H       -2.93960000      -4.75250000      -1.23880000
