18
Properties=species:S:1:pos:R:3 gdb_47571=T pbc="F F F"
O       -0.07210000      -0.06870000       0.32550000
C        0.01130000       1.10370000       0.04990000
C       -1.26690000       1.95570000      -0.07000000
O       -1.38170000       2.82510000      -1.17680000
C       -0.36960000       3.81500000      -1.27940000
C        0.83330000       3.27290000      -2.01850000
C        2.22560000       3.58020000      -1.59090000
N        1.67500000       2.23780000      -1.41210000
C        1.36920000       1.80790000      -0.04640000
H       -2.11140000       1.26630000      -0.12110000
H       -1.34540000       2.52660000       0.87520000
H       -0.80640000       4.64200000      -1.84860000
H       -0.10100000       4.20280000      -0.28570000
H        0.64240000       3.09080000      -3.07460000
H        3.02130000       3.67440000      -2.32450000
H        2.35230000       4.19770000      -0.70180000
H        1.36350000       2.64170000       0.67760000
H        2.13310000       1.09370000       0.27120000
