17
Properties=species:S:1:pos:R:3 gdb_88507=T pbc="F F F"
O       -0.13600000       1.07650000       1.34550000
C       -0.01760000       0.04460000       0.41110000
C       -0.62300000      -1.25730000       0.83870000
C       -1.26210000      -0.47280000      -0.28510000
C       -2.59340000       0.22230000      -0.14190000
C       -3.73430000      -0.44970000       0.56340000
N       -3.08990000       0.71780000       1.15380000
C       -2.89170000       1.10190000      -1.25880000
N       -3.10140000       1.77970000      -2.17160000
H       -0.26990000       1.90570000       0.87260000
H        0.91950000       0.02730000      -0.14320000
H       -0.12470000      -2.18730000       0.59150000
H       -1.10220000      -1.25310000       1.81280000
H       -1.10640000      -0.87090000      -1.28370000
H       -4.75130000      -0.28880000       0.21980000
H       -3.52510000      -1.43830000       0.96320000
H       -2.42400000       0.47930000       1.88340000
