18
Properties=species:S:1:pos:R:3 gdb_112639=T pbc="F F F"
N        0.01260000       1.33380000       0.20890000
C       -0.04850000      -0.00880000       0.06490000
C       -1.15380000      -0.80320000       0.06100000
C       -0.76980000      -2.18780000      -0.10270000
O       -1.49550000      -3.16380000      -0.24540000
C        0.76980000      -2.26970000      -0.11180000
C        1.25470000      -3.11740000      -1.29940000
O        0.80650000      -4.44640000      -1.20220000
C        1.22910000      -0.80140000      -0.11000000
H        0.87590000       1.82200000       0.04500000
H       -0.82770000       1.88680000       0.20880000
H       -2.18190000      -0.47340000       0.13170000
H        1.08240000      -2.78060000       0.80600000
H        0.92200000      -2.63580000      -2.23790000
H        2.35120000      -3.14090000      -1.32320000
H       -0.13620000      -4.38950000      -0.97130000
H        1.71030000      -0.52270000      -1.05780000
H        1.94660000      -0.57350000       0.68620000
