25
Properties=species:S:1:pos:R:3 gdb_112560=T pbc="F F F"
C        0.39950000       1.47090000       0.22770000
C        0.16910000      -0.04020000       0.12250000
C        0.48140000      -0.56070000      -1.27370000
O        1.87320000      -0.37710000      -1.62600000
C        2.07820000      -1.80330000      -1.84780000
C        2.48420000      -2.06240000      -3.29420000
C        3.11880000      -2.34510000      -0.87400000
C        0.57460000      -2.08900000      -1.53210000
C        0.18950000      -3.07550000      -0.43730000
H        1.43200000       1.71480000      -0.03730000
H       -0.26050000       2.02070000      -0.45260000
H        0.21000000       1.83220000       1.24290000
H        0.79570000      -0.55770000       0.85790000
H       -0.87420000      -0.28300000       0.36460000
H       -0.16390000      -0.03920000      -1.99660000
H        3.46160000      -1.61560000      -3.50400000
H        2.54980000      -3.13780000      -3.49480000
H        1.75560000      -1.62560000      -3.98310000
H        2.85130000      -2.12860000       0.16280000
H        3.23920000      -3.42840000      -0.98340000
H        4.08670000      -1.87410000      -1.07440000
H        0.04070000      -2.36150000      -2.44760000
H        0.67620000      -2.86260000       0.51740000
H       -0.89240000      -3.05970000      -0.26750000
H        0.45810000      -4.09750000      -0.72590000
