20
Properties=species:S:1:pos:R:3 gdb_38951=T pbc="F F F"
C        0.01990000       1.52690000       0.15470000
C        1.25850000       0.72510000       0.03870000
C        1.99110000       0.36480000       1.32710000
O        2.04310000       1.41700000       2.29830000
C        1.31600000       1.05490000       3.46930000
C        1.21120000      -0.47500000       3.45530000
C        1.15470000      -0.77910000       1.95290000
C       -0.23880000      -0.65850000       1.28160000
N       -0.07180000       0.07050000       0.00190000
H       -0.19900000       1.96720000       1.12440000
H       -0.33980000       2.10160000      -0.69450000
H        1.82330000       0.71410000      -0.88920000
H        3.02340000       0.06900000       1.10830000
H        1.85160000       1.44460000       4.34080000
H        0.31660000       1.51830000       3.45750000
H        2.10690000      -0.92090000       3.89920000
H        0.34250000      -0.84410000       4.00730000
H        1.59150000      -1.75160000       1.71510000
H       -0.65990000      -1.64460000       1.06620000
H       -0.95460000      -0.13770000       1.93000000
