20
Properties=species:S:1:pos:R:3 gdb_74910=T pbc="F F F"
C        0.02510000       1.46480000       0.04180000
C       -0.02980000      -0.02590000      -0.03460000
C       -0.13810000      -0.82170000      -1.10270000
C        0.00050000      -2.25070000      -0.64580000
C        1.47350000      -2.49740000      -0.18300000
C        1.00150000      -2.08270000       1.20400000
C        1.58160000      -2.59740000       2.48940000
C        0.05010000      -0.90780000       1.17010000
N       -0.44940000      -2.26020000       0.82510000
H        0.98200000       1.80680000       0.45620000
H       -0.09870000       1.92020000      -0.94410000
H       -0.75870000       1.85810000       0.70140000
H       -0.15930000      -0.51490000      -2.14140000
H       -0.47130000      -3.01850000      -1.25770000
H        1.71700000      -3.56300000      -0.18470000
H        2.27380000      -1.93680000      -0.67600000
H        2.56610000      -2.15240000       2.67650000
H        0.93390000      -2.35370000       3.33690000
H        1.70370000      -3.68570000       2.45950000
H       -0.27430000      -0.52990000       2.13700000
