18
Properties=species:S:1:pos:R:3 gdb_94094=T pbc="F F F"
C       -0.04550000       1.57570000      -0.07120000
C        0.04620000       0.05520000       0.00890000
C        0.76340000      -0.60630000      -1.20620000
C        1.57760000      -1.75010000      -0.57180000
C        1.57560000      -1.30900000       0.86950000
O        2.41520000      -1.97880000       1.71410000
C        2.29180000      -1.78060000       3.07150000
O        3.04990000      -2.29820000       3.82850000
N        0.79840000      -0.36910000       1.20710000
H        0.95380000       2.01840000      -0.13810000
H       -0.61570000       1.88000000      -0.95500000
H       -0.53880000       1.98210000       0.81570000
H       -0.97100000      -0.34860000       0.11090000
H        0.06460000      -0.94700000      -1.97260000
H        1.43630000       0.12060000      -1.67270000
H        1.08850000      -2.72820000      -0.65800000
H        2.59040000      -1.86460000      -0.96660000
H        1.44600000      -1.12830000       3.32270000
