21
Properties=species:S:1:pos:R:3 gdb_91764=T pbc="F F F"
C       -0.28570000       1.52730000      -0.04940000
C        0.00780000       0.03610000       0.02270000
O        0.65910000      -0.39520000      -1.19340000
C        1.81000000      -1.16570000      -0.84620000
C        1.46300000      -1.75530000       0.52420000
C        0.93340000      -0.45830000       1.15890000
C        2.13690000       0.46870000       1.39640000
O        2.78740000       0.82890000       0.18600000
C        3.03340000      -0.24570000      -0.70840000
H        0.63650000       2.09750000      -0.17380000
H       -0.93680000       1.73480000      -0.90350000
H       -0.80230000       1.86230000       0.85690000
H       -0.94610000      -0.50880000       0.09890000
H        1.98180000      -1.90710000      -1.63280000
H        0.68650000      -2.52110000       0.43910000
H        2.32250000      -2.18040000       1.04980000
H        0.38960000      -0.60880000       2.09580000
H        1.83250000       1.41380000       1.85580000
H        2.84100000      -0.02630000       2.08670000
H        3.90350000      -0.84280000      -0.38450000
H        3.27300000       0.21930000      -1.66880000
