18
Properties=species:S:1:pos:R:3 gdb_111901=T pbc="F F F"
C        0.09420000       1.52240000       0.08280000
C       -0.06260000       0.04230000       0.01480000
C       -1.15540000      -0.71520000      -0.14810000
C       -0.76970000      -2.16970000      -0.12500000
C       -1.11990000      -3.01130000      -1.37460000
O       -0.70200000      -4.34620000      -1.22790000
C        0.75570000      -2.11340000       0.03310000
O        1.53910000      -3.04550000       0.00410000
N        1.07830000      -0.78270000       0.15280000
H        0.76810000       1.88880000      -0.70130000
H       -0.87320000       2.01230000      -0.04250000
H        0.51650000       1.83420000       1.04570000
H       -2.16350000      -0.34170000      -0.25160000
H       -1.18680000      -2.69950000       0.74200000
H       -2.20620000      -3.02090000      -1.51420000
H       -0.67920000      -2.53120000      -2.26420000
H        0.22040000      -4.31410000      -0.92980000
H        2.03110000      -0.45670000       0.18540000
