19
Properties=species:S:1:pos:R:3 gdb_119744=T pbc="F F F"
O       -0.02310000       1.44330000      -0.03330000
C        0.01610000       0.02830000       0.06500000
C       -1.41820000      -0.47890000      -0.06620000
C       -1.49850000      -1.98000000       0.02090000
C       -1.03520000      -2.88330000      -1.14250000
O       -2.22040000      -3.71100000      -1.01670000
C       -2.74960000      -2.89020000       0.03700000
C       -2.27060000      -3.31500000       1.43080000
O       -1.07200000      -2.50640000       1.30320000
H        0.86400000       1.77970000       0.12320000
H        0.64310000      -0.40850000      -0.73030000
H        0.42880000      -0.30160000       1.02880000
H       -2.02180000      -0.03020000       0.73000000
H       -1.83280000      -0.14220000      -1.02340000
H       -0.99510000      -2.39870000      -2.12650000
H       -0.10900000      -3.43770000      -0.95790000
H       -3.79000000      -2.60040000      -0.12240000
H       -2.89460000      -2.96880000       2.26470000
H       -2.05420000      -4.38270000       1.54060000
