17
Properties=species:S:1:pos:R:3 gdb_49771=T pbc="F F F"
O       -0.03790000      -0.03790000      -0.00360000
C       -0.01400000       1.17290000       0.00670000
N        1.13190000       1.92590000       0.00030000
C        2.42560000       1.39270000      -0.01810000
N        3.38470000       2.22710000      -0.02140000
C        2.79310000       3.57330000      -0.00360000
C        1.26430000       3.37860000       0.01100000
C        0.31000000       4.26800000      -0.73030000
C        0.32600000       4.25560000       0.78670000
H       -0.92830000       1.79430000       0.02130000
H        2.52720000       0.31490000      -0.02830000
H        3.14740000       4.11690000       0.87990000
H        3.12870000       4.13200000      -0.88510000
H        0.72510000       5.12740000      -1.24750000
H       -0.53680000       3.81110000      -1.23220000
H       -0.51000000       3.79040000       1.29890000
H        0.75220000       5.10640000       1.30900000
