18
Properties=species:S:1:pos:R:3 gdb_99684=T pbc="F F F"
O        0.04270000       1.44420000       0.10520000
C        0.01790000       0.03780000       0.08890000
C       -1.41850000      -0.53580000      -0.00000000
C       -2.04900000      -0.05200000      -1.23260000
N       -2.50450000       0.34370000      -2.21910000
C       -1.43800000      -2.06800000       0.06170000
C       -1.16030000      -2.71050000       1.44140000
O       -2.44620000      -3.35480000       1.45170000
C       -2.81420000      -2.75990000       0.19060000
H       -0.25860000       1.76220000      -0.75370000
H        0.62250000      -0.38010000      -0.73010000
H        0.46150000      -0.29060000       1.03370000
H       -1.99190000      -0.12950000       0.84300000
H       -0.82230000      -2.47650000      -0.74310000
H       -0.33560000      -3.43160000       1.47800000
H       -1.04780000      -2.00180000       2.27400000
H       -3.67040000      -2.07990000       0.28780000
H       -3.04450000      -3.51360000      -0.57030000
