14
Properties=species:S:1:pos:R:3 gdb_44989=T pbc="F F F"
O        0.10190000       0.10520000      -0.42080000
C       -0.00720000       1.22070000      -0.02130000
C       -1.28420000       2.04130000       0.19070000
C       -0.81990000       3.33280000       0.82050000
C       -0.06580000       3.25860000       2.12540000
C        0.69910000       3.23940000       0.82340000
O        1.09020000       1.96820000       0.35310000
C        1.56750000       4.31040000       0.42690000
N        2.24800000       5.19550000       0.12710000
H       -1.76100000       2.20190000      -0.78070000
H       -1.97870000       1.46130000       0.80440000
H       -1.29790000       4.26560000       0.55200000
H       -0.01070000       4.16380000       2.71840000
H       -0.06490000       2.33170000       2.69010000
