18
Properties=species:S:1:pos:R:3 gdb_10963=T pbc="F F F"
C        0.13530000       1.27010000       0.14410000
O       -0.29320000      -0.02280000      -0.21690000
C        0.48000000      -0.59750000      -1.23980000
C        1.90360000      -1.16090000      -0.86710000
C        1.40300000      -2.54780000      -1.28670000
O        2.14350000      -3.44810000      -2.03170000
C        0.20660000      -2.94670000      -0.47480000
C        0.02840000      -1.99450000      -1.64090000
H        1.16490000       1.27160000       0.53340000
H        0.09120000       1.96600000      -0.70890000
H       -0.53640000       1.62990000       0.92720000
H        0.53970000       0.08600000      -2.09920000
H        2.68700000      -0.78170000      -1.52690000
H        2.21360000      -1.04670000       0.17700000
H        2.61490000      -4.02760000      -1.42330000
H       -0.15110000      -3.95150000      -0.67570000
H        0.06320000      -2.59800000       0.54390000
H       -0.62230000      -2.23180000      -2.47280000
