10
Properties=species:S:1:pos:R:3 gdb_23678=T pbc="F F F"
F        0.03090000       0.05960000       0.00310000
C       -0.00740000       1.38110000       0.01040000
C       -1.23770000       2.03580000       0.03070000
N       -1.28300000       3.36640000       0.03810000
C       -0.12650000       4.02610000       0.02560000
C        1.07630000       3.32230000       0.00540000
F        2.22130000       3.98310000      -0.00690000
N        1.14940000       2.00830000      -0.00230000
H       -2.16880000       1.48020000       0.04060000
H       -0.14220000       5.11030000       0.03140000
