15
Properties=species:S:1:pos:R:3 gdb_20731=T pbc="F F F"
C       -0.06200000       1.48390000      -0.04420000
C       -0.00780000      -0.00760000       0.03090000
N       -0.04180000      -0.76060000      -1.06650000
N        0.01760000      -2.03810000      -0.61180000
C        0.09000000      -2.12210000       0.74080000
N        0.21560000      -3.33360000       1.42940000
C        0.07660000      -0.81610000       1.19070000
O        0.06140000      -0.45640000       2.51890000
H        0.86670000       1.94640000       0.31360000
H       -0.21490000       1.79530000      -1.07960000
H       -0.87880000       1.88540000       0.56610000
H        0.05370000      -2.79600000      -1.27060000
H       -0.59350000      -3.93660000       1.31670000
H        0.33160000      -3.14440000       2.41890000
H        0.75200000       0.19610000       2.67300000
