18
Properties=species:S:1:pos:R:3 gdb_67949=T pbc="F F F"
C        0.21720000       1.59060000      -0.10860000
C        0.03040000       0.10240000       0.07470000
O       -1.30780000      -0.18280000       0.67450000
C       -0.73180000      -0.90710000       1.69250000
N       -1.25570000      -1.54450000       2.63870000
C        0.69800000      -0.66510000       1.25210000
C        1.45160000      -1.86810000       0.65070000
C        1.04740000      -1.82830000      -0.80650000
C        0.29410000      -0.77340000      -1.11820000
H        1.23280000       1.80630000      -0.45500000
H       -0.48620000       1.97640000      -0.85370000
H        0.04490000       2.12240000       0.83120000
H       -2.27540000      -1.49200000       2.59760000
H        1.28250000      -0.07440000       1.95810000
H        2.53770000      -1.76630000       0.76680000
H        1.17290000      -2.80980000       1.13590000
H        1.35370000      -2.59820000      -1.50690000
H       -0.10480000      -0.54660000      -2.10040000
