15
Properties=species:S:1:pos:R:3 gdb_838=T pbc="F F F"
C        0.02250000       1.52250000       0.00680000
C       -0.00490000       0.02380000       0.01420000
C       -0.05970000      -0.79740000      -1.08620000
N       -0.05550000      -2.10510000      -0.64710000
C        0.00360000      -2.13220000       0.72250000
N       -0.03910000      -3.37630000       1.38930000
C        0.04080000      -0.82840000       1.16350000
H        0.93670000       1.91820000       0.46570000
H       -0.02730000       1.91220000      -1.01450000
H       -0.82150000       1.94760000       0.56340000
H       -0.09340000      -0.56220000      -2.13810000
H       -0.19420000      -2.92270000      -1.21460000
H        0.86460000      -3.84200000       1.39070000
H       -0.31390000      -3.24810000       2.35560000
H        0.11340000      -0.51470000       2.19480000
