19
Properties=species:S:1:pos:R:3 gdb_31965=T pbc="F F F"
C        0.23680000       1.75200000      -0.07790000
C       -0.26500000       0.29820000      -0.13770000
C        0.52470000      -0.57480000      -1.05830000
N        0.11250000      -1.07710000      -2.19600000
C        1.17370000      -1.79850000      -2.71840000
C        2.24150000      -1.71820000      -1.86440000
N        1.83110000      -0.94000000      -0.80940000
O        3.49820000      -2.20470000      -1.84570000
C        3.83140000      -3.00330000      -2.97120000
H        1.26860000       1.80800000       0.28580000
H        0.20880000       2.21160000      -1.07000000
H       -0.38500000       2.34970000       0.59560000
H       -0.27040000      -0.12720000       0.87510000
H       -1.29670000       0.27340000      -0.49760000
H        1.09790000      -2.32100000      -3.65760000
H        2.39900000      -0.70650000      -0.01220000
H        4.86360000      -3.32540000      -2.82920000
H        3.17560000      -3.88040000      -3.03680000
H        3.74870000      -2.42500000      -3.89990000
