20
Properties=species:S:1:pos:R:3 gdb_27757=T pbc="F F F"
C       -0.05400000       1.57290000      -0.04280000
C        0.10670000       0.09020000      -0.08000000
C       -0.00250000      -0.81830000      -1.12550000
C        0.24340000      -2.15910000      -0.66440000
C        0.21930000      -3.41470000      -1.48250000
C        0.49910000      -2.00350000       0.67870000
C        0.83250000      -2.41840000       2.10430000
C        0.72320000      -0.87770000       2.43230000
N        0.41640000      -0.68250000       1.00770000
H        0.86130000       2.08290000       0.28360000
H       -0.30010000       1.94420000      -1.04060000
H       -0.85770000       1.88770000       0.63500000
H       -0.24010000      -0.54470000      -2.14480000
H        0.95680000      -3.38940000      -2.29390000
H        0.44160000      -4.29080000      -0.86590000
H       -0.75960000      -3.58160000      -1.94820000
H        0.09360000      -3.04080000       2.61700000
H        1.82650000      -2.84390000       2.26920000
H       -0.09070000      -0.59790000       3.10820000
H        1.65140000      -0.39960000       2.76020000
