21
Properties=species:S:1:pos:R:3 gdb_58377=T pbc="F F F"
C       -0.14710000       1.50040000      -0.08100000
C        0.03770000      -0.02370000      -0.02660000
C        0.76910000      -0.50980000      -1.28740000
C        0.78090000      -0.48960000       1.26010000
C        0.17040000       0.09740000       2.55710000
C        0.81500000      -0.41370000       3.76160000
C        1.36670000      -0.85420000       4.73420000
C        0.72670000      -2.00710000       1.33310000
O        1.61090000      -2.75230000       1.00200000
H        0.81810000       2.01560000      -0.01110000
H       -0.60590000       1.78720000      -1.03260000
H       -0.79190000       1.87710000       0.71740000
H       -0.96310000      -0.48180000      -0.01140000
H        1.75340000      -0.03470000      -1.36930000
H        0.92640000      -1.59090000      -1.28550000
H        0.19760000      -0.24890000      -2.18360000
H        1.83550000      -0.20180000       1.18940000
H        0.24950000       1.18840000       2.53840000
H       -0.90400000      -0.13160000       2.58930000
H        1.84880000      -1.24000000       5.59810000
H       -0.25090000      -2.40460000       1.69900000
