18
Properties=species:S:1:pos:R:3 gdb_81553=T pbc="F F F"
O        0.10810000       1.44680000      -0.15570000
C        0.06900000       0.06630000      -0.05410000
C       -0.00360000      -0.59010000       1.36130000
N       -1.40830000       0.00590000       1.44050000
C       -1.31480000      -0.64850000       0.06300000
C       -0.57960000      -1.85290000       0.68720000
C        0.19780000      -2.95950000      -0.04810000
O       -0.49690000      -3.97840000       0.69940000
C       -1.26910000      -3.00750000       1.43560000
H       -0.54380000       1.76300000       0.48840000
H        0.78560000      -0.35780000      -0.75880000
H        0.70010000      -0.51550000       2.19240000
H       -1.99720000      -0.55640000       2.06060000
H       -2.15460000      -0.64260000      -0.63430000
H        0.01210000      -3.04170000      -1.12700000
H        1.28090000      -2.98520000       0.12930000
H       -1.07780000      -3.06650000       2.51540000
H       -2.34690000      -3.12300000       1.25880000
