13
Properties=species:S:1:pos:R:3 gdb_20475=T pbc="F F F"
C        0.86420000       1.03070000      -0.13560000
O       -0.05530000       0.20870000      -0.85020000
C       -0.43510000       0.65860000       0.45400000
C       -0.55050000      -0.38700000       1.48770000
N       -1.26810000      -0.20490000       2.59940000
N       -1.11370000      -1.35170000       3.24770000
N       -0.36830000      -2.27540000       2.65750000
C        0.00500000      -1.68090000       1.52510000
H        1.76710000       0.53220000       0.21330000
H        1.00370000       2.03560000      -0.53180000
H       -1.22180000       1.41080000       0.47540000
H       -1.55440000      -1.51740000       4.13810000
H        0.61970000      -2.18750000       0.79960000
