18
Properties=species:S:1:pos:R:3 gdb_65337=T pbc="F F F"
O       -0.08460000       1.31380000       0.33780000
C        0.03350000      -0.05940000       0.11400000
C        1.03870000      -0.50680000      -0.90660000
C        1.32070000      -0.74920000       0.57720000
C        2.27480000       0.05240000       1.27810000
C        3.00850000       0.78910000       1.88720000
C       -1.26590000      -0.79280000       0.26570000
C       -2.24350000      -0.37370000       1.29870000
N       -2.51770000      -0.13510000      -0.13080000
H        0.53650000       1.56430000       1.03520000
H        0.82210000      -1.38000000      -1.51230000
H        1.61420000       0.27110000      -1.39330000
H        1.21540000      -1.77090000       0.92970000
H        3.69680000       1.40580000       2.41050000
H       -1.21110000      -1.84430000      -0.01050000
H       -2.88180000      -1.11280000       1.77410000
H       -1.97950000       0.47960000       1.91590000
H       -2.31330000       0.84130000      -0.33620000
