23
Properties=species:S:1:pos:R:3 gdb_112972=T pbc="F F F"
C       -0.27620000       1.66370000      -0.07600000
C       -0.11650000       0.17960000      -0.41640000
C       -1.30330000      -0.65100000       0.04670000
C       -1.14090000      -2.18550000       0.04780000
C       -1.24210000      -2.06500000       1.58650000
O       -1.46090000      -0.63340000       1.48950000
C       -2.36070000      -2.78300000       2.27950000
C       -2.09750000      -4.12860000       2.91460000
C       -2.34950000      -2.92240000       3.78060000
H        0.60610000       2.23850000      -0.37280000
H       -1.14450000       2.09560000      -0.58610000
H       -0.42290000       1.79000000       1.00040000
H       -0.00140000       0.04390000      -1.50040000
H        0.79430000      -0.21620000       0.05100000
H       -2.22130000      -0.28930000      -0.43850000
H       -1.96040000      -2.74030000      -0.41320000
H       -0.19090000      -2.55840000      -0.34070000
H       -0.29690000      -2.27450000       2.10960000
H       -3.33240000      -2.64570000       1.81200000
H       -2.86870000      -4.88700000       2.84220000
H       -1.08630000      -4.52070000       2.87170000
H       -1.50850000      -2.49820000       4.31910000
H       -3.29460000      -2.85180000       4.30680000
