17
Properties=species:S:1:pos:R:3 gdb_41742=T pbc="F F F"
C        0.18950000       1.34660000      -0.22750000
O        1.29280000       1.90060000       0.47390000
C        1.95290000       0.83520000       1.11970000
C        2.39620000      -0.32720000       0.24750000
C        3.16680000      -1.42890000       0.95100000
O        2.43390000      -1.74930000       2.14070000
C        1.05180000      -1.49040000       1.92860000
C        1.04560000      -0.33540000       0.96490000
O       -0.13550000       0.10050000       0.37000000
H       -0.66970000       2.01950000      -0.15080000
H        0.45620000       1.19140000      -1.28530000
H        2.46710000       1.13850000       2.02480000
H        2.50910000      -0.19870000      -0.82270000
H        3.24660000      -2.30450000       0.28800000
H        4.17500000      -1.14730000       1.27230000
H        0.52670000      -2.35430000       1.49030000
H        0.60440000      -1.26480000       2.90150000
