18
Properties=species:S:1:pos:R:3 gdb_107346=T pbc="F F F"
O        0.13530000       1.34810000       0.25510000
C       -0.01270000       0.00530000      -0.18740000
C       -1.42840000      -0.50330000      -0.04020000
C       -1.84510000      -1.11560000       1.27630000
C       -1.68580000      -1.98870000       0.04340000
N       -2.85720000      -2.54230000      -0.56590000
C       -3.74750000      -1.73490000      -0.96250000
O       -3.73750000      -0.37970000      -0.92440000
C       -2.45470000       0.26560000      -0.84870000
H       -0.11390000       1.37410000       1.18540000
H        0.28250000       0.01420000      -1.24300000
H        0.67660000      -0.67260000       0.34020000
H       -1.09780000      -1.20610000       2.05870000
H       -2.85670000      -0.95180000       1.63170000
H       -0.83520000      -2.66260000       0.02610000
H       -4.68650000      -2.09640000      -1.37590000
H       -2.64600000       1.25750000      -0.43310000
H       -2.07860000       0.39490000      -1.87290000
