18
Properties=species:S:1:pos:R:3 gdb_24118=T pbc="F F F"
C        0.06360000       1.31010000       0.63120000
C       -0.04170000      -0.07580000       0.03030000
C       -1.33270000      -0.65210000      -0.40150000
N       -0.34410000      -0.21770000      -1.41350000
C        1.38150000       1.95880000       0.32790000
C        2.15370000       2.87210000       1.00070000
N        3.28720000       3.18730000       0.28610000
C        3.21100000       2.46990000      -0.81030000
N        2.07660000       1.71360000      -0.84210000
H       -0.77180000       1.91890000       0.25170000
H       -0.06440000       1.26330000       1.71860000
H        0.73010000      -0.76800000       0.36120000
H       -1.49400000      -1.72450000      -0.34940000
H       -2.23030000      -0.05240000      -0.27480000
H       -0.64480000       0.68530000      -1.77770000
H        1.95270000       3.32140000       1.96220000
H        3.93810000       2.45010000      -1.60850000
H        1.81510000       1.03650000      -1.54210000
