19
Properties=species:S:1:pos:R:3 gdb_66328=T pbc="F F F"
C       -0.00610000       1.52670000      -0.01280000
C       -0.01290000      -0.01380000      -0.00000000
N        0.66650000      -0.49910000      -1.20210000
C        0.96750000      -1.93280000      -1.17320000
C        2.00470000      -2.19710000      -0.08030000
C        1.62090000      -1.49140000       1.19090000
C        0.69800000      -0.53500000       1.23720000
C       -1.43070000      -0.48050000       0.04540000
N       -2.52520000      -0.85550000       0.02880000
H        1.02980000       1.87170000      -0.02930000
H       -0.52090000       1.90550000      -0.90090000
H       -0.51130000       1.92630000       0.87050000
H        0.11380000      -0.26580000      -2.02000000
H        0.07110000      -2.54780000      -0.98510000
H        1.35870000      -2.21570000      -2.15440000
H        2.09270000      -3.27480000       0.10150000
H        2.99610000      -1.85530000      -0.40680000
H        2.12700000      -1.78870000       2.10590000
H        0.41460000      -0.06370000       2.17300000
