19
Properties=species:S:1:pos:R:3 gdb_107053=T pbc="F F F"
C        0.40450000       1.55970000      -0.04290000
C        0.08300000       0.07630000       0.05400000
O        0.57460000      -0.57240000      -1.12170000
C        0.99040000      -1.89680000      -0.81760000
C        1.30580000      -1.90120000       0.66680000
C        1.53750000      -3.17700000       1.42570000
O        2.69540000      -3.85290000       0.96170000
O        2.16310000      -0.79550000       1.02950000
C        0.74730000      -0.65980000       1.20460000
H        1.48760000       1.70410000      -0.04580000
H       -0.00740000       1.97310000      -0.96710000
H       -0.02770000       2.10520000       0.80200000
H       -1.00780000      -0.07130000       0.14520000
H        0.19500000      -2.63220000      -1.02290000
H        1.85380000      -2.13690000      -1.44480000
H        1.59960000      -2.95240000       2.50040000
H        0.70090000      -3.86700000       1.27120000
H        3.44020000      -3.25490000       1.09170000
H        0.39290000      -0.54290000       2.22570000
