19
Properties=species:S:1:pos:R:3 gdb_101264=T pbc="F F F"
C        1.24170000       1.63030000      -0.63510000
C        0.31320000       0.59450000       0.01380000
C        0.02670000      -0.59870000      -0.91560000
O       -0.58460000      -0.22190000      -2.13740000
C        0.91340000       0.09490000       1.30840000
O        0.88440000       0.97410000       2.43040000
C        0.10870000      -0.23540000       2.50770000
C       -1.32410000      -0.11190000       2.53510000
C       -2.52390000      -0.04860000       2.57750000
H        2.20450000       1.18410000      -0.91510000
H        0.78610000       2.05610000      -1.53440000
H        1.44110000       2.45370000       0.05590000
H       -0.64400000       1.07260000       0.24640000
H        0.95730000      -1.16390000      -1.09410000
H       -0.67860000      -1.27870000      -0.42720000
H        0.06980000       0.24160000      -2.66820000
H        1.85800000      -0.44640000       1.20340000
H        0.51510000      -0.97190000       3.20070000
H       -3.58350000       0.01770000       2.61180000
