15
Properties=species:S:1:pos:R:3 gdb_23984=T pbc="F F F"
C        0.13830000      -1.19820000      -0.29260000
C        0.05610000      -0.01180000      -0.10250000
C       -0.06040000       1.38120000       0.11820000
C       -1.24480000       2.11700000       0.09540000
N       -0.82730000       3.39150000       0.36230000
C       -0.95870000       4.84520000       0.59170000
C        0.61140000       4.86240000       0.78930000
C        0.51350000       3.36930000       0.52490000
N        1.05210000       2.18760000       0.39230000
H        0.22030000      -2.24330000      -0.45890000
H       -2.26360000       1.82020000      -0.08110000
H       -1.33090000       5.39380000      -0.27670000
H       -1.54820000       5.09740000       1.47630000
H        1.15710000       5.44670000       0.04520000
H        0.94070000       5.15190000       1.78960000
