20
Properties=species:S:1:pos:R:3 gdb_58859=T pbc="F F F"
C       -0.06470000       1.50340000       0.22280000
N       -0.01110000       0.05490000       0.03840000
C        0.92010000      -0.59120000       0.94480000
C       -1.30870000      -0.52280000      -0.02030000
C       -2.14560000      -1.01850000       1.18180000
C       -1.82420000      -1.97470000       0.07890000
C       -2.82330000      -1.74730000      -1.06670000
C       -2.25950000      -0.30750000      -1.16750000
O       -2.39490000       0.57500000      -1.96840000
H        0.93530000       1.92160000       0.07180000
H       -0.73820000       1.93650000      -0.51910000
H       -0.41080000       1.79440000       1.23160000
H        0.67910000      -0.44070000       2.01410000
H        0.95440000      -1.66630000       0.74640000
H        1.92200000      -0.18510000       0.77400000
H       -1.56330000      -1.11850000       2.09190000
H       -3.16910000      -0.68910000       1.34150000
H       -1.24180000      -2.87490000       0.22420000
H       -2.59130000      -2.29460000      -1.98520000
H       -3.88430000      -1.87220000      -0.82920000
