18
Properties=species:S:1:pos:R:3 gdb_53076=T pbc="F F F"
C       -0.06670000       1.49640000      -0.11830000
C        0.00290000       0.04690000      -0.05170000
C        0.06700000      -1.15450000       0.00050000
C        0.13770000      -2.57350000       0.06200000
N        1.17590000      -3.27610000      -0.17320000
C        0.77150000      -4.67420000       0.00720000
C       -0.71760000      -4.62220000       0.44940000
C       -0.99020000      -5.15260000       1.84790000
O       -1.02450000      -3.20300000       0.40310000
H        0.93460000       1.93950000      -0.11340000
H       -0.57370000       1.82200000      -1.03330000
H       -0.62190000       1.90370000       0.73340000
H        0.91400000      -5.22510000      -0.92910000
H        1.40680000      -5.15240000       0.76270000
H       -1.37740000      -5.10830000      -0.27650000
H       -0.33730000      -4.66340000       2.57780000
H       -2.02940000      -4.97690000       2.13870000
H       -0.79920000      -6.23040000       1.88310000
