16
Properties=species:S:1:pos:R:3 gdb_4760=T pbc="F F F"
C       -0.07880000       1.42630000       0.07170000
N       -0.00240000      -0.02340000       0.02870000
C       -1.08460000      -0.67370000       0.02910000
N       -1.23080000      -2.04640000      -0.00800000
C       -2.58720000      -2.36700000      -0.07250000
C       -3.27290000      -1.21900000      -0.01160000
C       -4.71440000      -0.88150000       0.00530000
O       -2.37120000      -0.16040000       0.06510000
H        0.90340000       1.84150000      -0.17070000
H       -0.80990000       1.84120000      -0.63690000
H       -0.35440000       1.79360000       1.07110000
H       -0.45420000      -2.65740000      -0.18270000
H       -2.93810000      -3.38300000      -0.12680000
H       -4.99300000      -0.35830000       0.92760000
H       -4.98100000      -0.22770000      -0.83330000
H       -5.31160000      -1.79370000      -0.06600000
