16
Properties=species:S:1:pos:R:3 gdb_94970=T pbc="F F F"
O        0.03260000       1.31570000       0.07360000
C       -0.04520000      -0.09390000      -0.04860000
C        0.50750000      -0.84230000       1.18050000
O       -0.51740000      -0.77460000       2.17030000
C       -1.74790000      -0.87350000       1.49790000
C       -1.53340000      -0.42360000       0.03040000
O       -1.84690000      -1.76970000      -0.43880000
C       -2.07070000      -2.22710000       0.85280000
N       -2.41120000      -3.35580000       1.27020000
H        0.94610000       1.55850000       0.25260000
H        0.40300000      -0.45480000      -0.98420000
H        0.73290000      -1.88610000       0.91750000
H        1.40910000      -0.38500000       1.59770000
H       -2.53190000      -0.42960000       2.10970000
H       -2.17470000       0.32970000      -0.42450000
H       -2.52620000      -4.02300000       0.50450000
