15
Properties=species:S:1:pos:R:3 gdb_10820=T pbc="F F F"
O        0.23280000       1.34390000       0.28950000
C        0.03320000      -0.04650000       0.05370000
C       -1.44740000      -0.43700000       0.01840000
N       -2.04250000      -0.05930000      -1.25620000
C       -1.43190000      -0.33700000      -2.45830000
O       -2.02990000      -0.31570000      -3.51970000
C        0.03170000      -0.59210000      -2.36810000
C        0.71610000      -0.46340000      -1.22840000
H       -0.13070000       1.81450000      -0.47010000
H        0.49710000      -0.54540000       0.91010000
H       -1.53500000      -1.51970000       0.19940000
H       -1.96940000       0.08440000       0.82510000
H       -3.04820000       0.01240000      -1.31540000
H        0.50450000      -0.83540000      -3.31300000
H        1.79630000      -0.57750000      -1.20650000
