18
Properties=species:S:1:pos:R:3 gdb_72359=T pbc="F F F"
C       -0.11200000       1.49460000       0.11210000
C        0.00990000      -0.01740000       0.01830000
C       -1.34120000      -0.76740000      -0.07020000
C       -1.22170000      -1.86450000       0.95850000
C       -0.07480000      -1.82470000       1.63340000
C        0.81920000      -0.69960000       1.17390000
N        2.07220000      -1.17870000       0.55150000
C        1.93960000      -0.94150000      -0.68650000
O        0.82680000      -0.33150000      -1.15470000
H        0.87660000       1.95750000       0.18700000
H       -0.61860000       1.90200000      -0.76810000
H       -0.68970000       1.77040000       1.00020000
H       -2.18310000      -0.09690000       0.14400000
H       -1.49910000      -1.15190000      -1.08390000
H       -2.01080000      -2.59190000       1.11610000
H        0.22970000      -2.51330000       2.41240000
H        1.07090000      -0.01100000       1.98940000
H        2.66590000      -1.19070000      -1.45320000
