19
Properties=species:S:1:pos:R:3 gdb_32675=T pbc="F F F"
C       -0.25390000       1.57700000      -0.04330000
C       -0.40820000       0.07670000       0.22050000
C        0.68270000      -0.48890000       1.11520000
C        0.78920000      -2.06390000       1.24770000
C        2.17410000      -1.87880000       0.65760000
N        3.36430000      -2.33990000       0.36040000
C        4.04510000      -1.18480000      -0.00200000
C        3.26460000      -0.04820000       0.10670000
N        2.04620000      -0.54370000       0.51440000
H        0.69090000       1.79080000      -0.55340000
H       -1.06430000       1.94900000      -0.67640000
H       -0.26920000       2.14930000       0.89070000
H       -1.37250000      -0.12230000       0.70520000
H       -0.40950000      -0.47550000      -0.72690000
H        0.69700000       0.02010000       2.08520000
H        0.75370000      -2.43740000       2.27390000
H        0.06970000      -2.61570000       0.63690000
H        5.07160000      -1.23370000      -0.33470000
H        3.46560000       0.99010000      -0.09350000
