18
Properties=species:S:1:pos:R:3 gdb_66627=T pbc="F F F"
C       -0.01260000       1.57160000       0.02860000
C       -0.06310000       0.08110000      -0.06390000
C        0.68060000      -0.85660000      -1.09080000
C        1.71960000      -1.09970000       0.02060000
N        0.63840000      -0.77980000       1.02420000
C       -0.43030000      -1.77990000       0.74120000
C       -0.45310000      -1.86410000      -0.81380000
C       -1.30390000      -0.86840000      -0.04020000
O       -2.65340000      -0.65790000       0.07260000
H        1.02270000       1.92810000       0.05630000
H       -0.50740000       2.03490000      -0.83230000
H       -0.51400000       1.91530000       0.93890000
H        0.92450000      -0.58830000      -2.11930000
H        2.17140000      -2.09090000       0.12060000
H        2.49560000      -0.33040000       0.06570000
H       -0.66650000      -2.61120000       1.39220000
H       -0.73370000      -2.76580000      -1.34100000
H       -2.99980000      -0.41820000      -0.79420000
