15
Properties=species:S:1:pos:R:3 gdb_24916=T pbc="F F F"
N       -0.04300000       1.27810000       0.03100000
C       -0.01320000       0.01350000       0.01500000
N       -1.11320000      -0.83460000       0.01540000
C       -0.65880000      -2.14800000       0.01720000
C        0.67960000      -2.09610000      -0.00000000
C        1.28170000      -3.45560000      -0.02680000
C        0.01460000      -4.30850000      -0.01590000
C       -1.09600000      -3.53680000       0.00740000
O        1.12820000      -0.79690000      -0.00690000
H        0.89650000       1.66460000       0.02700000
H       -2.04990000      -0.47990000       0.07480000
H        1.88610000      -3.65360000      -0.92170000
H        1.91850000      -3.67660000       0.83960000
H        0.04220000      -5.38870000      -0.02270000
H       -2.12000000      -3.88410000       0.01940000
