15
Properties=species:S:1:pos:R:3 gdb_21139=T pbc="F F F"
C       -0.00840000       1.43810000      -0.07680000
N       -0.00310000      -0.01230000      -0.04460000
C       -1.09000000      -0.64100000       0.04260000
O       -2.38490000      -0.11590000       0.13330000
C       -3.20690000      -1.19490000       0.24040000
N       -2.61360000      -2.32820000       0.21580000
N       -1.28180000      -2.00540000       0.07290000
C       -0.24900000      -3.01020000       0.07430000
H        0.86790000       1.81220000       0.46220000
H        0.07070000       1.80310000      -1.10980000
H       -0.90500000       1.88800000       0.36910000
H       -4.26610000      -1.02120000       0.33150000
H       -0.44980000      -3.76210000      -0.69380000
H        0.69000000      -2.50000000      -0.14400000
H       -0.17590000      -3.50480000       1.04900000
