14
Properties=species:S:1:pos:R:3 gdb_24771=T pbc="F F F"
O       -0.01230000      -0.02910000       0.00270000
C       -0.00370000       1.18240000       0.00850000
C       -1.19610000       2.10630000       0.03190000
C       -0.75380000       3.37320000       0.03210000
N        0.65480000       3.38600000       0.01140000
C        1.67440000       4.29690000       0.00140000
C        2.85850000       3.58370000      -0.01990000
C        2.53310000       2.19490000      -0.02270000
C        1.15680000       2.10470000      -0.00320000
H       -2.22110000       1.77170000       0.04570000
H       -1.29700000       4.30740000       0.04550000
H        1.48630000       5.35890000       0.01000000
H        3.84860000       4.01220000      -0.03200000
H        3.22550000       1.36750000      -0.03740000
