16
Properties=species:S:1:pos:R:3 gdb_133038=T pbc="F F F"
C       -0.02490000       1.54080000       0.00590000
C        0.01370000       0.00280000       0.01880000
C        0.73700000      -0.52370000       1.23050000
N        2.06150000      -0.70400000       1.12760000
C        2.70380000      -1.14100000       2.20890000
C        2.02500000      -1.39600000       3.39030000
F        2.66870000      -1.83790000       4.46960000
C        0.65600000      -1.18000000       3.41430000
N        0.00990000      -0.74300000       2.33530000
H        0.98820000       1.95440000      -0.00670000
H       -0.55330000       1.90540000      -0.87970000
H       -0.54000000       1.92350000       0.89240000
H       -1.00590000      -0.39190000       0.02430000
H        0.52540000      -0.36110000      -0.87640000
H        3.77830000      -1.29590000       2.14240000
H        0.08120000      -1.36620000       4.31870000
