12
Properties=species:S:1:pos:R:3 gdb_131330=T pbc="F F F"
O        0.00640000       1.27800000      -0.05130000
C        0.03910000      -0.04550000      -0.06570000
N        0.04680000      -0.81730000      -1.09710000
N        0.08540000      -2.15440000      -0.61820000
C        0.09840000      -2.10410000       0.66420000
O        0.13320000      -3.10660000       1.54720000
N        0.07100000      -0.79400000       1.13320000
C        0.07280000      -0.30190000       2.42250000
O        0.04520000       0.88600000       2.66150000
H        0.00940000       1.56780000       0.88200000
H        0.14810000      -3.93050000       1.04050000
H        0.10050000      -1.08660000       3.19160000
