14
Properties=species:S:1:pos:R:3 gdb_131256=T pbc="F F F"
O        0.23620000       1.34090000       0.04540000
C        0.07140000       0.01000000      -0.07700000
C       -0.03880000      -0.87960000      -1.12110000
N       -0.19140000      -2.12610000      -0.59040000
N       -0.18250000      -2.05950000       0.70360000
N       -0.02550000      -0.74380000       1.04150000
C        0.05700000      -0.32610000       2.41970000
C        1.49020000      -0.03890000       2.86920000
O        1.74900000       0.63190000       3.82920000
H        0.27130000       1.74020000      -0.82990000
H       -0.02010000      -0.70210000      -2.18380000
H       -0.56080000       0.55740000       2.59900000
H       -0.33310000      -1.15330000       3.02160000
H        2.27330000      -0.52190000       2.24400000
