18
Properties=species:S:1:pos:R:3 gdb_69700=T pbc="F F F"
C       -0.05180000       1.52830000       0.02230000
C        0.02910000       0.02880000       0.01840000
C       -0.85150000      -0.86290000       0.84500000
C        0.63800000      -0.94510000       1.03830000
C        1.33330000      -1.74450000      -0.09440000
C        0.70880000      -0.78100000      -1.13320000
N        0.02770000      -1.93720000      -1.71940000
C        0.49820000      -2.85610000      -0.78890000
O        0.28110000      -4.02610000      -0.63270000
H        0.90580000       1.98420000      -0.25530000
H       -0.80770000       1.88790000      -0.68710000
H       -0.32420000       1.90600000       1.01310000
H       -1.37990000      -0.35170000       1.64400000
H       -1.40910000      -1.68470000       0.40530000
H        1.10250000      -0.73370000       1.99340000
H        2.40830000      -1.88520000      -0.00870000
H        1.31580000      -0.19420000      -1.82400000
H       -0.77500000      -2.00310000      -2.33020000
