23
Properties=species:S:1:pos:R:3 gdb_64271=T pbc="F F F"
C       -0.01110000       1.52800000       0.04450000
C       -0.03520000       0.00190000      -0.04370000
C       -1.47440000      -0.51610000       0.10540000
C        0.63280000      -0.47210000      -1.34800000
C        0.74010000      -2.00370000      -1.42860000
C        1.15270000      -2.62540000      -0.10570000
C        2.41940000      -2.22930000       0.62320000
C        1.07580000      -1.79150000       1.14870000
O        0.76810000      -0.42880000       1.07220000
H        1.01470000       1.89850000      -0.03510000
H       -0.60690000       1.97250000      -0.75870000
H       -0.41910000       1.85870000       1.00390000
H       -2.09960000      -0.17640000      -0.72700000
H       -1.51210000      -1.60780000       0.13340000
H       -1.90850000      -0.13990000       1.03630000
H        0.07640000      -0.09240000      -2.21210000
H        1.63020000      -0.01900000      -1.39040000
H       -0.23530000      -2.41670000      -1.71170000
H        1.43480000      -2.29060000      -2.22700000
H        0.86380000      -3.66670000       0.00740000
H        2.96930000      -3.00020000       1.15220000
H        3.03500000      -1.44550000       0.19470000
H        0.69960000      -2.25290000       2.05930000
