17
Properties=species:S:1:pos:R:3 gdb_112226=T pbc="F F F"
C        0.03490000       1.51820000      -0.04020000
C        0.04460000       0.00130000       0.12110000
N       -1.30290000      -0.54780000       0.09260000
C       -2.20850000      -0.28140000       1.23480000
C       -2.64240000      -1.74670000       1.17150000
O       -3.50750000      -2.41410000       1.63340000
C       -1.44200000      -2.01450000       0.20440000
C       -1.67360000      -2.73950000      -1.03690000
N       -1.87020000      -3.31780000      -2.01790000
H        1.05700000       1.90740000      -0.03720000
H       -0.44530000       1.80170000      -0.98070000
H       -0.50700000       2.00240000       0.77910000
H        0.60230000      -0.45640000      -0.70340000
H        0.56820000      -0.27550000       1.05760000
H       -1.69680000      -0.06130000       2.18730000
H       -2.98040000       0.47400000       1.06090000
H       -0.62700000      -2.50370000       0.76690000
