15
Properties=species:S:1:pos:R:3 gdb_101975=T pbc="F F F"
C       -0.28360000       1.31470000       0.35030000
O       -0.16440000      -0.09340000       0.13810000
C        0.56580000      -0.48230000      -0.99670000
C       -0.00930000       0.00310000      -2.35070000
O       -1.05130000       0.58630000      -2.45570000
C        2.05140000      -0.03630000      -0.85240000
O        2.73890000       0.36930000      -1.74680000
C        0.59670000      -1.94240000      -1.05720000
C        0.66930000      -3.13760000      -1.16020000
H        0.68790000       1.82480000       0.28490000
H       -0.97640000       1.76840000      -0.36130000
H       -0.66630000       1.42930000       1.36600000
H        0.62810000      -0.25630000      -3.21740000
H        2.40840000      -0.14610000       0.19400000
H        0.71520000      -4.19670000      -1.23630000
