21
Properties=species:S:1:pos:R:3 gdb_105908=T pbc="F F F"
C       -0.00500000       1.32940000       0.05240000
O       -0.06800000      -0.08170000      -0.04960000
C       -1.34930000      -0.58580000      -0.05030000
C       -2.48410000      -0.38330000      -1.08640000
C       -2.27370000      -0.82690000      -2.52600000
C       -3.03710000      -1.38600000      -0.04480000
C       -1.65320000      -2.10160000       0.15760000
C       -1.72280000      -1.95590000       1.69160000
C       -2.36010000      -0.65570000       1.16270000
H        1.05190000       1.60410000       0.03910000
H       -0.51140000       1.82150000      -0.78960000
H       -0.45700000       1.68720000       0.98810000
H       -2.96620000       0.60230000      -1.04230000
H       -1.79330000      -1.80920000      -2.57990000
H       -3.22630000      -0.89080000      -3.06340000
H       -1.63720000      -0.11830000      -3.06710000
H       -4.01070000      -1.87210000      -0.01970000
H       -1.25560000      -2.92480000      -0.43600000
H       -2.38550000      -2.64810000       2.22030000
H       -0.76830000      -1.85780000       2.21610000
H       -2.78360000       0.18790000       1.71020000
