15
Properties=species:S:1:pos:R:3 gdb_46820=T pbc="F F F"
O        0.05570000       0.03520000       0.22830000
C       -0.00230000       1.21850000       0.04860000
C       -1.25310000       2.05980000      -0.23900000
C       -0.70910000       3.34900000      -0.87840000
N        0.73620000       3.48110000      -0.53710000
C        1.00830000       3.38950000       0.88030000
C        1.17860000       2.17220000       0.00560000
C        2.48240000       1.66590000      -0.32480000
N        3.52980000       1.24780000      -0.57550000
H       -1.92120000       1.49930000      -0.89480000
H       -1.79410000       2.22770000       0.69840000
H       -0.77060000       3.29800000      -1.96830000
H       -1.22710000       4.25450000      -0.55330000
H        1.90880000       3.89510000       1.21370000
H        0.18660000       3.38440000       1.59340000
