19
Properties=species:S:1:pos:R:3 gdb_110643=T pbc="F F F"
C        0.26030000       1.22880000       0.25130000
O       -0.44350000       0.12490000      -0.28760000
C        0.32190000      -0.59260000      -1.20740000
C        1.40660000      -1.61840000      -0.93130000
C        1.09650000      -2.68180000       0.15640000
C       -0.22810000      -2.52750000       0.86380000
C       -0.19400000      -3.05830000      -0.54430000
C        0.09880000      -1.99790000      -1.64590000
O       -0.05050000      -2.33380000      -2.98130000
H        1.15990000       0.90820000       0.79470000
H        0.56340000       1.93450000      -0.53710000
H       -0.41680000       1.73750000       0.94110000
H        0.61420000       0.01480000      -2.07090000
H        2.39800000      -1.49910000      -1.35100000
H        1.86640000      -3.34950000       0.52040000
H       -0.41000000      -3.29520000       1.61190000
H       -0.64920000      -1.55930000       1.08930000
H       -0.53340000      -4.04750000      -0.82280000
H       -0.96450000      -2.15540000      -3.23350000
