20
Properties=species:S:1:pos:R:3 gdb_72723=T pbc="F F F"
C       -0.04580000       1.51050000      -0.07500000
C       -0.06920000      -0.01660000      -0.03390000
C       -1.31540000      -0.43130000       0.85080000
O       -0.37720000      -0.53140000       2.00590000
C        0.66110000      -0.78180000       0.99340000
C        1.97180000      -0.32820000       0.25810000
N        1.07290000      -0.53990000      -1.01350000
C        0.90790000      -2.02060000      -0.96450000
C        0.65660000      -2.27440000       0.54080000
H        0.85330000       1.91380000      -0.54070000
H       -0.89780000       1.85340000      -0.67310000
H       -0.15340000       1.93230000       0.92950000
H       -2.05410000       0.35630000       1.01540000
H       -1.80830000      -1.38530000       0.65460000
H        2.25470000       0.71410000       0.36300000
H        2.85010000      -0.97930000       0.27930000
H        0.06670000      -2.31020000      -1.59940000
H        1.81030000      -2.49920000      -1.35440000
H        1.46320000      -2.82390000       1.03370000
H       -0.27590000      -2.79590000       0.75630000
