18
Properties=species:S:1:pos:R:3 gdb_14367=T pbc="F F F"
C       -0.03830000       1.60170000       0.10850000
C        1.44420000       1.20930000       0.06870000
O        1.11590000       0.03260000       0.94500000
C        0.09070000       0.06780000      -0.13330000
C       -0.93140000      -0.87870000      -0.69630000
C       -0.89810000      -0.43300000      -2.21280000
C        0.38920000       0.46610000      -2.46260000
C        1.18530000       0.28540000      -1.16750000
H       -0.41460000       1.87660000       1.09410000
H       -0.44010000       2.23170000      -0.68750000
H        2.33050000       1.77650000       0.35530000
H       -0.59110000      -1.91300000      -0.58550000
H       -1.93030000      -0.79700000      -0.26080000
H       -0.88910000      -1.31340000      -2.86000000
H       -1.80230000       0.12800000      -2.46290000
H        0.94350000       0.12980000      -3.34180000
H        0.09520000       1.50110000      -2.65150000
H        1.89500000      -0.54480000      -1.20380000
