18
Properties=species:S:1:pos:R:3 gdb_79099=T pbc="F F F"
C        0.03230000       1.60390000      -0.03450000
C        0.11410000       0.08270000      -0.02800000
C        0.70320000      -0.68140000      -1.21690000
C        2.22810000      -0.78880000      -1.10840000
N        2.96700000       0.08960000      -0.24230000
C        2.38470000       0.17370000       1.00740000
O        2.74030000       0.88470000       1.92030000
C        1.13150000      -0.69570000       0.91450000
C        1.37270000      -1.67270000      -0.26620000
H        0.99590000       2.06990000      -0.25620000
H       -0.68250000       1.93770000      -0.79490000
H       -0.30710000       1.98280000       0.93500000
H       -0.87430000      -0.33720000       0.18320000
H        0.20270000      -0.87580000      -2.15930000
H        2.76440000      -1.19780000      -1.95560000
H        3.57770000       0.82090000      -0.57030000
H        0.75550000      -1.04130000       1.87330000
H        1.39000000      -2.75400000      -0.24620000
