14
Properties=species:S:1:pos:R:3 gdb_124053=T pbc="F F F"
C        0.15130000       1.55420000      -0.07310000
O        1.53940000       1.46530000       0.32360000
C        1.47350000       0.03300000       0.46820000
C       -0.03900000       0.02700000       0.03940000
N        0.42260000      -0.72360000      -1.14470000
N        0.15930000      -1.16670000      -2.38100000
N        1.33730000      -1.50490000      -2.86140000
C        2.33880000      -1.23530000      -1.96520000
C        1.73530000      -0.72710000      -0.83600000
H       -0.42960000       2.11930000       0.66330000
H        0.01580000       1.98170000      -1.07080000
H        1.88350000      -0.32790000       1.41000000
H       -0.88020000      -0.39580000       0.58240000
H        3.36830000      -1.43940000      -2.20480000
