17
Properties=species:S:1:pos:R:3 gdb_123491=T pbc="F F F"
C       -0.12420000       1.61950000       0.00370000
N       -0.24750000       0.21360000      -0.37440000
C       -0.15800000      -0.75120000       0.71890000
C       -1.46480000      -0.45870000       0.06790000
C        1.31610000       2.03620000       0.01160000
N        1.80830000       2.68940000       1.03780000
O        3.14290000       2.93580000       0.72650000
C        3.40730000       2.41130000      -0.47970000
C        2.30150000       1.82360000      -0.99710000
H       -0.67220000       2.21160000      -0.74000000
H       -0.55910000       1.84600000       0.99070000
H        0.37770000      -1.66860000       0.49400000
H       -0.00370000      -0.36640000       1.72530000
H       -2.18750000       0.11920000       0.64190000
H       -1.90050000      -1.15810000      -0.63970000
H        4.41970000       2.53470000      -0.83220000
H        2.18620000       1.30760000      -1.93470000
