12
Properties=species:S:1:pos:R:3 gdb_129001=T pbc="F F F"
N        0.02230000       1.23870000       0.00900000
N        1.04940000       2.07210000       0.00340000
C        2.26330000       1.53010000      -0.01140000
C        2.40760000       0.14340000      -0.02030000
N        3.44550000      -0.69180000      -0.03490000
C        2.82220000      -1.91120000      -0.03540000
N        1.48350000      -1.95250000      -0.02260000
C        1.17580000      -0.63690000      -0.01240000
N       -0.02410000      -0.08060000       0.00230000
H       -0.88160000       1.69190000       0.02030000
H        3.09230000       2.22860000      -0.01570000
H        3.40850000      -2.82240000      -0.04610000
