17
Properties=species:S:1:pos:R:3 gdb_45181=T pbc="F F F"
O        0.00670000      -0.00550000      -0.07960000
C        0.00190000       1.19550000       0.01280000
C       -1.27670000       2.04230000       0.11230000
C       -0.87990000       3.36330000       0.76280000
O       -0.10010000       3.01980000       1.95380000
C        1.08080000       3.17330000       1.16170000
C        0.37970000       4.03170000       0.09660000
C        1.02790000       3.20650000      -1.02530000
C        1.24660000       2.06580000       0.02780000
H       -1.70780000       2.18640000      -0.88630000
H       -2.01210000       1.50500000       0.71640000
H       -1.72230000       4.01440000       1.00340000
H        1.97210000       3.43180000       1.73460000
H        0.38370000       5.12110000       0.08740000
H        0.45120000       2.96570000      -1.92250000
H        1.97970000       3.64970000      -1.32860000
H        2.15790000       1.47160000      -0.01110000
