14
Properties=species:S:1:pos:R:3 gdb_130701=T pbc="F F F"
O       -0.14930000       0.52210000       1.27150000
C       -0.10070000       1.42100000       0.46310000
N       -0.66190000       1.52150000      -0.79390000
N       -0.42380000       2.72270000      -1.42620000
C        0.31280000       3.38060000      -0.58590000
C        0.88020000       4.74410000      -0.84940000
C        0.87260000       5.60230000       0.33200000
C        0.88320000       6.27940000       1.32410000
N        0.55630000       2.65790000       0.55500000
H       -1.25380000       0.83340000      -1.22450000
H        1.91160000       4.64570000      -1.21650000
H        0.30180000       5.18870000      -1.66540000
H        0.88220000       6.89560000       2.18950000
H        1.02230000       2.98350000       1.38480000
