21
Properties=species:S:1:pos:R:3 gdb_114867=T pbc="F F F"
C       -0.06890000       1.42450000       0.39730000
C       -0.08620000      -0.09850000       0.25250000
C       -1.45650000      -0.64630000      -0.16350000
C       -1.52550000      -2.18870000      -0.19550000
C       -2.12720000      -2.55270000       1.15340000
O       -1.19040000      -2.49410000       2.25860000
C       -1.92210000      -1.41040000       2.87980000
C       -2.83080000      -1.26630000       1.64110000
O       -2.50580000      -0.23480000       0.73730000
H        0.91760000       1.78110000       0.70820000
H       -0.31780000       1.91500000      -0.55080000
H       -0.80270000       1.75090000       1.13910000
H        0.63670000      -0.40910000      -0.51360000
H        0.22820000      -0.58350000       1.18290000
H       -1.72360000      -0.21570000      -1.13610000
H       -2.19340000      -2.53230000      -0.99220000
H       -0.54770000      -2.65410000      -0.34170000
H       -2.68980000      -3.49150000       1.15580000
H       -2.44160000      -1.74530000       3.78690000
H       -1.28860000      -0.54830000       3.11120000
H       -3.90890000      -1.25460000       1.81400000
