16
Properties=species:S:1:pos:R:3 gdb_23365=T pbc="F F F"
N       -0.05230000       1.27270000       0.32440000
C       -0.10650000      -0.07520000       0.12850000
N        1.05830000      -0.72690000      -0.05980000
H        1.89340000      -0.21720000      -0.29120000
H        1.00440000      -1.72610000      -0.22390000
C       -1.34430000      -0.73520000       0.11360000
N       -2.39160000       0.03020000       0.54710000
O       -3.51970000      -0.49130000       0.53840000
C       -1.55790000      -2.15050000      -0.27480000
C       -1.15450000      -2.73670000      -1.56350000
O       -0.40660000      -3.03270000      -0.37340000
H        0.74790000       1.62960000       0.82540000
H       -0.95340000       1.64580000       0.60700000
H       -2.41950000      -2.59050000       0.22070000
H       -1.70850000      -3.57850000      -1.97430000
H       -0.63700000      -2.11660000      -2.29360000
