17
Properties=species:S:1:pos:R:3 gdb_88052=T pbc="F F F"
O       -0.01140000       1.36470000       0.00740000
C        0.05320000      -0.02060000       0.11750000
C       -0.51450000      -0.70670000       1.35890000
C       -1.24020000      -0.76240000       0.05510000
O       -2.42240000       0.01390000      -0.17350000
C       -2.83810000      -0.89250000      -1.22470000
C       -1.71460000      -1.90440000      -0.85480000
C       -0.82840000      -2.37580000      -1.89680000
C       -0.08440000      -2.75630000      -2.76100000
H       -0.92310000       1.57430000      -0.24310000
H        0.93470000      -0.45270000      -0.34870000
H       -0.03080000      -1.60900000       1.72070000
H       -0.93870000      -0.06310000       2.12320000
H       -3.86580000      -1.23440000      -1.07820000
H       -2.72270000      -0.44820000      -2.21830000
H       -2.10980000      -2.74380000      -0.27410000
H        0.56970000      -3.09460000      -3.52630000
