19
Properties=species:S:1:pos:R:3 gdb_72235=T pbc="F F F"
C       -0.01450000       1.47140000      -0.01420000
C       -0.02530000      -0.01910000       0.02550000
O        0.82970000      -0.73690000      -0.87360000
C       -0.08490000      -1.88590000      -0.80380000
C        0.51470000      -2.89950000       0.16820000
C        0.60750000      -2.09230000       1.49320000
C       -0.30310000      -0.88330000       1.25600000
O       -0.95760000      -0.28530000       2.33290000
C       -1.11360000      -1.05850000      -0.01220000
H        0.99070000       1.85410000       0.19820000
H       -0.31550000       1.84230000      -0.99880000
H       -0.70350000       1.86770000       0.73610000
H       -0.34050000      -2.25120000      -1.80000000
H       -0.15620000      -3.76010000       0.27140000
H        1.48480000      -3.26410000      -0.18030000
H        0.23830000      -2.65960000       2.35220000
H        1.63810000      -1.79160000       1.70800000
H       -0.30850000       0.22180000       2.83320000
H       -2.18920000      -0.99920000      -0.10520000
