17
Properties=species:S:1:pos:R:3 gdb_106158=T pbc="F F F"
O        0.21640000       1.29750000       0.25950000
C        0.06310000      -0.07020000      -0.09400000
C       -1.36020000      -0.51280000      -0.11660000
C       -2.40410000      -0.75820000       0.94000000
O       -3.40210000       0.07150000       0.35310000
C       -2.66180000      -0.07500000      -0.89680000
C       -2.90190000      -1.55240000      -1.30440000
C       -2.05070000      -1.86980000      -0.07180000
O       -1.44610000      -3.05400000       0.28590000
H       -0.25970000       1.43550000       1.08530000
H        0.51400000      -0.16730000      -1.08810000
H        0.62730000      -0.73450000       0.57980000
H       -2.34900000      -0.86630000       2.01660000
H       -2.78350000       0.76040000      -1.58160000
H       -3.94440000      -1.88410000      -1.34460000
H       -2.37200000      -1.81150000      -2.22450000
H       -2.08610000      -3.59370000       0.76420000
