14
Properties=species:S:1:pos:R:3 gdb_11433=T pbc="F F F"
C       -0.12360000       1.35590000      -0.06440000
O       -0.08230000      -0.06620000      -0.11090000
C        0.69420000      -0.57750000      -1.13300000
C        0.66680000      -2.10900000      -1.06200000
O       -0.23890000      -2.48600000      -2.09810000
C       -0.50920000      -1.42090000      -2.89160000
O       -1.18650000      -1.45040000      -3.86620000
O        0.12650000      -0.30970000      -2.41900000
H        0.88820000       1.77530000       0.02920000
H       -0.60150000       1.76890000      -0.95870000
H       -0.70660000       1.62250000       0.81820000
H        1.69830000      -0.13440000      -1.13460000
H        1.64650000      -2.55470000      -1.25630000
H        0.28010000      -2.44680000      -0.09990000
