16
Properties=species:S:1:pos:R:3 gdb_97604=T pbc="F F F"
O        0.30310000       0.92220000       0.80080000
C       -0.06290000       0.14750000      -0.32980000
C       -1.38210000      -0.47660000      -0.21140000
C       -2.47970000      -0.96510000      -0.11420000
C       -3.79110000      -1.59080000       0.06180000
O       -3.70340000      -2.93020000       0.51060000
C       -4.66140000      -0.72490000       1.01680000
C       -6.00340000      -1.27370000       1.18950000
N       -7.07140000      -1.69400000       1.31890000
H       -0.36680000       1.60370000       0.91860000
H       -0.02640000       0.73900000      -1.25800000
H        0.70460000      -0.62870000      -0.42140000
H       -4.30540000      -1.64740000      -0.90440000
H       -3.05490000      -2.96550000       1.22290000
H       -4.16820000      -0.65930000       1.99280000
H       -4.73630000       0.29400000       0.62280000
