16
Properties=species:S:1:pos:R:3 gdb_12711=T pbc="F F F"
C       -0.10260000       1.53300000       0.06330000
C        0.02480000       0.02890000       0.03200000
C       -1.25090000      -0.86890000       0.20610000
C       -0.50320000      -1.73400000       1.26700000
C        0.76640000      -0.89260000       1.04440000
O        1.58840000      -1.42790000      -0.04270000
C        0.99000000      -0.60320000      -0.97070000
O        1.24000000      -0.51530000      -2.13010000
H        0.87610000       2.01860000       0.12990000
H       -0.58820000       1.88780000      -0.85180000
H       -0.70740000       1.85970000       0.91520000
H       -2.09000000      -0.30620000       0.62110000
H       -1.59030000      -1.37970000      -0.69680000
H       -0.91430000      -1.62740000       2.27350000
H       -0.38090000      -2.79540000       1.04450000
H        1.38640000      -0.56140000       1.87660000
