20
Properties=species:S:1:pos:R:3 gdb_119472=T pbc="F F F"
C        0.49440000       1.39420000      -0.05930000
O        0.80990000       0.02460000      -0.12150000
C        0.06330000      -0.66550000      -1.10370000
C        0.42260000      -2.11630000      -1.04440000
C        0.48610000      -2.98220000       0.22090000
C        1.68620000      -3.75700000      -0.43370000
O        1.50510000      -5.12450000      -0.74060000
C        1.57110000      -2.86380000      -1.66850000
N        0.22680000      -2.93400000      -2.23250000
H        0.70670000       1.90700000      -1.01090000
H       -0.56690000       1.55930000       0.18710000
H        1.11200000       1.83780000       0.72550000
H       -1.01870000      -0.53340000      -0.92200000
H        0.27230000      -0.27860000      -2.11350000
H        0.78320000      -2.42240000       1.10950000
H       -0.40950000      -3.57500000       0.43700000
H        2.62190000      -3.58730000       0.11430000
H        1.46320000      -5.61590000       0.08600000
H        2.38190000      -2.52170000      -2.30090000
H       -0.21610000      -3.82910000      -2.03210000
