18
Properties=species:S:1:pos:R:3 gdb_18381=T pbc="F F F"
C       -0.01560000       1.57240000       0.06660000
C        1.24100000       0.73550000      -0.08940000
C        2.26000000       0.66890000       1.04030000
C        2.63900000      -0.74920000       1.41880000
C        1.79200000      -1.75550000       1.63480000
C        0.28590000      -1.73820000       1.58070000
O       -0.31720000      -0.46470000       1.41660000
C       -0.09010000       0.07910000       0.15150000
H       -0.13580000       2.11760000       0.99670000
H       -0.43980000       2.05970000      -0.80420000
H        1.65400000       0.64410000      -1.09010000
H        3.15860000       1.22560000       0.75410000
H        1.85920000       1.18180000       1.92230000
H        3.70170000      -0.95080000       1.53450000
H        2.19810000      -2.73240000       1.89630000
H       -0.05940000      -2.42680000       0.78770000
H       -0.11290000      -2.13400000       2.52360000
H       -0.56530000      -0.47070000      -0.66270000
