12
Properties=species:S:1:pos:R:3 gdb_131225=T pbc="F F F"
O        0.08470000       1.30730000       0.06490000
C        0.06910000      -0.03790000       0.01900000
C        0.08120000      -0.91920000      -1.00870000
C        0.05080000      -2.23150000      -0.37580000
C        0.01930000      -2.07580000       1.09730000
N        0.03370000      -0.68420000       1.24450000
O       -0.01140000      -2.89800000       1.98630000
N        0.04760000      -4.44080000      -1.39760000
N        0.04990000      -3.40170000      -0.93640000
H        0.10900000       1.65190000      -0.83440000
H        0.10810000      -0.70860000      -2.06400000
H        0.01720000      -0.22200000       2.13800000
