14
Properties=species:S:1:pos:R:3 gdb_28392=T pbc="F F F"
N        0.11680000       1.35830000       0.18990000
C       -0.06400000      -0.00640000       0.05880000
C       -1.22580000      -0.70040000       0.00570000
N       -1.25240000      -2.07380000      -0.00780000
C       -0.12520000      -2.71320000       0.02320000
N       -0.05780000      -4.08160000       0.08400000
C        1.18720000      -2.03990000       0.02120000
O        2.26000000      -2.58670000      -0.02740000
O        1.12480000      -0.66630000       0.05670000
H        0.95850000       1.70000000      -0.25530000
H       -0.69550000       1.90500000      -0.05700000
H       -2.17840000      -0.18590000      -0.01710000
H       -0.89260000      -4.57850000      -0.18290000
H        0.82540000      -4.48470000      -0.18770000
