20
Properties=species:S:1:pos:R:3 gdb_90089=T pbc="F F F"
C       -0.08360000       1.55590000       0.11140000
C        0.01620000       0.04620000       0.00870000
C        1.22080000      -0.58010000      -0.69460000
O        2.11550000      -0.12630000       0.46120000
C        0.88250000      -0.74250000       1.04750000
C        0.22960000      -1.69210000       2.07490000
N       -0.16860000      -2.49090000       0.83740000
C       -0.23140000      -3.93390000       0.96390000
C        1.01630000      -1.91190000       0.13150000
H        0.88530000       1.99260000       0.36060000
H       -0.42540000       1.98420000      -0.83740000
H       -0.80850000       1.84630000       0.87940000
H       -0.93790000      -0.43640000      -0.20980000
H        1.65200000      -0.39770000      -1.68350000
H        0.95280000      -2.22900000       2.70470000
H       -0.60790000      -1.32300000       2.67460000
H       -1.04190000      -4.21080000       1.64610000
H       -0.44920000      -4.37330000      -0.01450000
H        0.70560000      -4.38090000       1.34420000
H        1.93350000      -2.49960000       0.24840000
