19
Properties=species:S:1:pos:R:3 gdb_74217=T pbc="F F F"
C       -0.55280000       1.42900000       0.07630000
C        0.04580000       0.04490000       0.05590000
C        0.04420000      -0.65540000      -1.09340000
C        0.53430000      -2.00480000      -1.44310000
O        0.57160000      -2.33820000      -2.61430000
C        0.99440000      -3.04390000      -0.41420000
O        0.78940000      -2.76940000       0.94730000
C        1.47660000      -1.62710000       1.41660000
C        0.58530000      -0.39200000       1.39380000
H        0.20930000       2.17810000       0.32610000
H       -0.99990000       1.69750000      -0.88260000
H       -1.32480000       1.50400000       0.85250000
H       -0.36640000      -0.17210000      -1.97740000
H        0.44950000      -3.96590000      -0.63680000
H        2.05860000      -3.24170000      -0.62640000
H        1.77990000      -1.83320000       2.44930000
H        2.39180000      -1.45550000       0.82980000
H        1.13350000       0.44860000       1.84250000
H       -0.27170000      -0.56730000       2.06060000
