16
Properties=species:S:1:pos:R:3 gdb_56717=T pbc="F F F"
O       -0.46310000       1.19770000       0.11550000
C        0.01070000      -0.13770000      -0.00140000
C        0.82200000      -0.31630000      -1.20480000
C        1.50550000      -0.41320000      -2.18820000
C        0.78740000      -0.55740000       1.26860000
C        1.70670000       0.44320000       1.94280000
C        0.40530000       0.08010000       2.59340000
C        1.17430000      -1.94390000       1.28530000
N        1.46900000      -3.06270000       1.29200000
H        0.13310000       1.76680000      -0.38170000
H       -0.87950000      -0.77570000      -0.06720000
H        2.10280000      -0.52220000      -3.06030000
H        2.62960000       0.06680000       2.36610000
H        1.77810000       1.41750000       1.47380000
H       -0.39590000       0.80690000       2.54620000
H        0.42080000      -0.55350000       3.47170000
