22
Properties=species:S:1:pos:R:3 gdb_102609=T pbc="F F F"
C        0.43300000       0.90730000       0.67530000
C       -0.40550000       0.20420000      -0.39740000
C        0.40890000      -0.31830000      -1.59150000
C        1.25690000      -1.54340000      -1.22360000
C        2.30650000      -1.94140000      -2.26420000
N        1.79430000      -2.27550000      -3.48360000
O        3.49460000      -1.98480000      -2.00590000
O       -0.46030000      -0.71670000      -2.66010000
C       -0.92600000       0.34320000      -3.46990000
H        1.15230000       0.23120000       1.14680000
H        0.99600000       1.74640000       0.25180000
H       -0.20890000       1.30510000       1.46670000
H       -0.96000000      -0.63560000       0.03870000
H       -1.15730000       0.90720000      -0.77310000
H        1.07020000       0.48590000      -1.95520000
H        1.80530000      -1.35410000      -0.30040000
H        0.57320000      -2.38360000      -1.05110000
H        0.83440000      -2.04650000      -3.69000000
H        2.44420000      -2.45010000      -4.23280000
H       -1.53790000       1.06270000      -2.90930000
H       -0.09310000       0.88800000      -3.93940000
H       -1.54710000      -0.09990000      -4.25240000
