19
Properties=species:S:1:pos:R:3 gdb_89944=T pbc="F F F"
O        0.58120000       0.62760000      -0.84400000
C       -0.02950000      -0.32450000      -0.01390000
C        0.04010000      -0.17170000       1.53290000
C       -1.46750000      -0.59480000       1.63620000
C       -2.42750000       0.61820000       1.80060000
C       -2.33730000       0.89750000       0.27340000
C       -1.57000000      -0.43540000       0.05440000
C       -1.75860000      -1.81550000       2.33730000
C       -2.01110000      -2.83810000       2.92040000
H        0.25680000       1.49980000      -0.59630000
H        0.39290000      -1.28670000      -0.31770000
H        0.75070000      -0.82120000       2.04520000
H        0.20730000       0.85880000       1.86370000
H       -3.42740000       0.30070000       2.10320000
H       -2.08780000       1.40340000       2.48190000
H       -3.29980000       0.95340000      -0.23740000
H       -1.77530000       1.79740000       0.00080000
H       -2.05790000      -1.17350000      -0.58180000
H       -2.23250000      -3.73940000       3.43580000
