19
Properties=species:S:1:pos:R:3 gdb_41330=T pbc="F F F"
C        0.07760000       1.52910000      -0.13300000
O        1.49170000       1.47100000       0.24490000
C        1.21140000       0.22420000       0.93790000
C        1.76920000      -1.19980000       0.79120000
C        0.47400000      -1.90460000       1.40950000
C       -0.77000000      -1.06060000       0.88040000
C       -0.00550000      -0.00140000       0.05470000
C        0.61830000      -0.72770000      -1.13300000
C        1.67140000      -1.42350000      -0.70300000
H       -0.50070000       2.11950000       0.59070000
H       -0.05370000       1.93030000      -1.14220000
H        0.98700000       0.45580000       1.98850000
H        2.69650000      -1.48390000       1.28890000
H        0.42760000      -2.94790000       1.09220000
H        0.51160000      -1.88790000       2.50290000
H       -1.46560000      -1.66890000       0.29890000
H       -1.31860000      -0.61840000       1.71650000
H        0.19040000      -0.71110000      -2.12840000
H        2.29660000      -2.10130000      -1.27040000
