15
Properties=species:S:1:pos:R:3 gdb_79556=T pbc="F F F"
O       -0.04380000       1.32110000      -0.04510000
C        0.04530000      -0.07270000      -0.01980000
C       -0.52510000      -0.69500000       1.23980000
C       -1.31350000      -0.70250000      -0.04890000
C       -1.25760000      -2.24360000       0.02010000
C        0.10320000      -2.82610000       0.19780000
N       -0.53910000      -2.20550000       1.36280000
C       -2.41670000      -3.05470000      -0.19760000
N       -3.35980000      -3.69090000      -0.40930000
H        0.67100000       1.67750000       0.49390000
H        0.89330000      -0.47810000      -0.56680000
H       -0.66860000      -0.12090000       2.14540000
H       -2.20220000      -0.15260000      -0.32340000
H        0.14270000      -3.90750000       0.28890000
H        0.97130000      -2.38760000      -0.27750000
