18
Properties=species:S:1:pos:R:3 gdb_3182=T pbc="F F F"
C       -0.10660000       1.39210000      -0.32080000
C        0.10420000      -0.07280000      -0.00090000
C        1.31820000      -0.76290000      -0.59250000
C        1.24550000      -0.46070000       0.89230000
N       -1.17040000      -0.73900000       0.18470000
C       -1.81350000      -1.33310000      -0.98390000
C       -1.28080000      -2.18700000       0.11420000
H        0.84860000       1.91730000      -0.40960000
H       -0.64670000       1.51060000      -1.26700000
H       -0.69760000       1.87150000       0.46570000
H        1.25350000      -1.80120000      -0.89820000
H        1.98550000      -0.17010000      -1.20930000
H        1.87600000       0.32290000       1.29900000
H        1.09230000      -1.30120000       1.56100000
H       -2.88060000      -1.15550000      -1.08400000
H       -1.25640000      -1.34000000      -1.91930000
H       -0.39830000      -2.78390000      -0.10550000
H       -1.95190000      -2.63450000       0.84240000
