21
Properties=species:S:1:pos:R:3 gdb_58780=T pbc="F F F"
C       -0.00300000       1.47740000      -0.17280000
C        0.01220000      -0.02360000       0.14210000
O        0.58570000      -0.27920000       1.41870000
C       -1.36510000      -0.61510000       0.07990000
C       -2.17290000      -1.02330000      -1.11230000
C       -1.93070000      -2.01880000       0.01460000
C       -1.29130000      -3.36370000      -0.16450000
C       -2.77850000      -1.58740000       1.20780000
O       -2.24390000      -0.23340000       1.15890000
H        1.00150000       1.89060000      -0.05120000
H       -0.34130000       1.66150000      -1.19740000
H       -0.68000000       2.00180000       0.50940000
H        0.64720000      -0.54390000      -0.58530000
H       -0.10060000      -0.05430000       2.05990000
H       -3.15170000      -0.57850000      -1.27450000
H       -1.60650000      -1.23010000      -2.01610000
H       -0.52800000      -3.33520000      -0.94850000
H       -0.80720000      -3.70040000       0.75850000
H       -2.02920000      -4.12110000      -0.45540000
H       -3.86960000      -1.60270000       1.09900000
H       -2.49270000      -2.07900000       2.14510000
