12
Properties=species:S:1:pos:R:3 gdb_3749=T pbc="F F F"
C       -0.02140000       1.41090000       0.03800000
N        0.00790000      -0.03260000      -0.00230000
C       -0.16860000      -0.86570000      -1.03930000
N       -0.06180000      -2.12690000      -0.64970000
C        0.18810000      -1.98940000       0.67870000
O        0.36990000      -3.03910000       1.49020000
N        0.24350000      -0.75010000       1.13580000
H        0.94010000       1.79820000       0.38480000
H       -0.22240000       1.78570000      -0.96740000
H       -0.80630000       1.75350000       0.71730000
H       -0.36900000      -0.52160000      -2.04310000
H        0.28510000      -3.82730000       0.94030000
