16
Properties=species:S:1:pos:R:3 gdb_16184=T pbc="F F F"
O       -0.00590000       1.46640000       0.36610000
C        0.07330000       0.09610000       0.01290000
C       -1.27760000      -0.54320000      -0.11470000
C       -2.09990000      -1.05610000       1.05340000
C       -1.62570000      -1.99430000      -0.04260000
O       -2.49490000      -2.26180000      -1.11550000
C       -2.96110000      -1.00730000      -1.57590000
O       -1.99800000      -0.03040000      -1.22070000
H       -0.54690000       1.89580000      -0.30570000
H        0.62190000      -0.04350000      -0.93150000
H        0.63920000      -0.39780000       0.80870000
H       -1.58660000      -1.12790000       2.00660000
H       -3.15170000      -0.80370000       1.12670000
H       -0.93250000      -2.80530000       0.14130000
H       -3.06720000      -1.03640000      -2.66480000
H       -3.93150000      -0.76780000      -1.11200000
