18
Properties=species:S:1:pos:R:3 gdb_124987=T pbc="F F F"
C        0.21690000       1.52790000       0.15100000
C        0.01910000       0.06100000       0.00120000
C       -1.08750000      -0.73740000      -0.06460000
C       -2.53600000      -0.35940000      -0.02850000
C       -3.18380000      -0.35610000      -1.41560000
O       -4.54650000      -0.00550000      -1.24760000
C       -0.52400000      -2.04030000      -0.20080000
N        0.78370000      -2.03130000      -0.21420000
O        1.13490000      -0.68940000      -0.08540000
H        0.84830000       1.75000000       1.01720000
H        0.70810000       1.95180000      -0.73130000
H       -0.74340000       2.03010000       0.28370000
H       -3.09680000      -1.05380000       0.60720000
H       -2.66380000       0.63470000       0.41210000
H       -2.65610000       0.36090000      -2.06440000
H       -3.07520000      -1.35110000      -1.87600000
H       -4.96830000      -0.00510000      -2.11170000
H       -1.04140000      -2.98700000      -0.28280000
