17
Properties=species:S:1:pos:R:3 gdb_112322=T pbc="F F F"
O       -0.05600000       1.34450000      -0.22950000
C        0.01780000      -0.07040000      -0.10130000
C       -1.40080000      -0.56070000       0.17470000
N       -2.32650000      -0.15730000      -0.87710000
C       -3.01630000      -1.18570000      -1.48700000
N       -3.90660000      -1.17100000      -2.39920000
C       -2.53200000      -2.45030000      -0.83890000
O       -1.12410000      -2.66920000      -1.06170000
C       -1.53320000      -2.07880000       0.17130000
H        0.79000000       1.66490000      -0.55450000
H        0.37990000      -0.54420000      -1.02250000
H        0.67820000      -0.36530000       0.72900000
H       -1.72500000      -0.16530000       1.14840000
H       -2.22300000       0.75190000      -1.29820000
H       -4.11550000      -0.21630000      -2.69900000
H       -3.15950000      -3.33310000      -0.81190000
H       -1.33760000      -2.65350000       1.07120000
