20
Properties=species:S:1:pos:R:3 gdb_55796=T pbc="F F F"
C        0.56360000       1.59370000      -0.13160000
C        0.33460000       0.09290000      -0.13190000
O       -0.47390000      -0.43160000       0.59980000
C        1.17960000      -0.71760000      -1.11070000
C        0.96540000      -2.21200000      -0.95630000
C       -0.15170000      -3.00910000      -1.67560000
C        0.71060000      -2.85090000      -2.94570000
N        1.77770000      -3.15930000      -1.87540000
C        0.76390000      -4.22190000      -1.40430000
H        1.60100000       1.81860000       0.14120000
H        0.40330000       2.00770000      -1.13340000
H       -0.11320000       2.07160000       0.57740000
H        0.96230000      -0.34670000      -2.11910000
H        2.23920000      -0.48020000      -0.94090000
H        1.10230000      -2.47690000       0.09600000
H       -1.23650000      -2.92320000      -1.55680000
H        0.63570000      -3.62810000      -3.71120000
H        0.80930000      -1.87000000      -3.41340000
H        0.91200000      -4.53740000      -0.36790000
H        0.69550000      -5.07930000      -2.07870000
