16
Properties=species:S:1:pos:R:3 gdb_9173=T pbc="F F F"
C        0.10020000       1.35640000      -0.00240000
N        0.05110000      -0.09290000      -0.02360000
C       -1.08200000      -0.62730000      -0.00870000
O       -1.15740000      -2.00170000      -0.02700000
C       -2.39800000      -2.58260000      -0.01050000
O       -3.43330000      -1.97470000       0.01920000
C       -2.26000000      -4.09890000      -0.03510000
N       -3.50840000      -4.83500000      -0.02040000
H        0.67410000       1.68380000       0.87110000
H        0.63840000       1.71060000      -0.88820000
H       -0.88840000       1.83960000       0.02500000
H       -2.05620000      -0.13460000       0.01890000
H       -1.67390000      -4.36440000      -0.92300000
H       -1.63860000      -4.38950000       0.82040000
H       -4.04540000      -4.57170000       0.80100000
H       -4.07800000      -4.54840000      -0.81150000
