16
Properties=species:S:1:pos:R:3 gdb_15596=T pbc="F F F"
O        0.09990000       1.49530000       0.45230000
C        0.03520000       0.14290000       0.06550000
C        0.71660000      -0.76640000       1.09030000
O       -0.23870000      -0.84110000       2.14240000
C       -1.50290000      -1.06810000       1.52610000
C       -1.41730000      -0.44750000       0.08860000
C       -2.46710000       0.51020000      -0.20730000
C       -3.35620000       1.28640000      -0.43450000
H       -0.20470000       1.54730000       1.36640000
H        0.47450000       0.08650000      -0.93270000
H        0.93060000      -1.76330000       0.67000000
H        1.63700000      -0.33510000       1.48850000
H       -1.71060000      -2.14530000       1.46250000
H       -2.27190000      -0.59810000       2.14210000
H       -1.45780000      -1.25790000      -0.64820000
H       -4.13090000       1.98160000      -0.64410000
