19
Properties=species:S:1:pos:R:3 gdb_109454=T pbc="F F F"
C        0.21140000       1.46730000      -0.18690000
O       -0.28600000       0.18310000      -0.52720000
C        0.63080000      -0.59880000      -1.23010000
C        1.75530000      -1.32560000      -0.43900000
O        2.48380000      -0.99630000       0.45150000
C        1.43250000      -2.66810000      -1.12780000
C        0.14380000      -1.99900000      -1.63800000
C       -1.25430000      -2.48410000      -1.39660000
C       -0.72150000      -2.35610000      -2.80600000
H        1.08680000       1.39830000       0.46920000
H        0.48660000       2.03850000      -1.08720000
H       -0.59290000       1.99100000       0.33440000
H        1.06170000      -0.04240000      -2.08320000
H        2.15720000      -2.91950000      -1.91070000
H        1.32980000      -3.52410000      -0.45530000
H       -1.38330000      -3.48010000      -0.98570000
H       -1.97560000      -1.75100000      -1.05430000
H       -1.10170000      -1.54840000      -3.42380000
H       -0.49020000      -3.26540000      -3.35130000
