18
Properties=species:S:1:pos:R:3 gdb_45261=T pbc="F F F"
O        0.08280000      -0.01120000      -0.31450000
C        0.05160000       1.16130000      -0.05840000
N       -0.97100000       2.00740000       0.31720000
C       -0.17640000       3.24580000       0.24890000
C        0.05900000       4.02710000       1.55570000
C        1.32910000       3.45640000       2.18390000
C        1.35680000       1.99860000       2.55570000
C        1.94620000       2.43850000       1.23570000
C        1.07200000       2.33330000      -0.00600000
H       -1.97050000       1.86110000       0.31290000
H       -0.47600000       3.89080000      -0.58280000
H        0.21160000       5.08560000       1.31880000
H       -0.81060000       3.96840000       2.21980000
H        1.95900000       4.13550000       2.74850000
H        2.05610000       1.69480000       3.32730000
H        0.42830000       1.43780000       2.55460000
H        3.01960000       2.37100000       1.10720000
H        1.62330000       2.49000000      -0.93370000
