14
Properties=species:S:1:pos:R:3 gdb_19040=T pbc="F F F"
O       -0.01140000      -0.00780000       0.11540000
C       -0.02040000       1.19470000      -0.00610000
N       -1.14130000       2.00860000      -0.11840000
C       -0.75440000       3.39870000       0.08120000
C       -0.05830000       3.57460000       1.45980000
N        1.28730000       3.29800000       0.85650000
C        0.68270000       3.46650000      -0.50090000
C        1.16230000       2.12890000      -0.10220000
H       -2.00800000       1.65810000       0.26700000
H       -1.51950000       4.10420000      -0.23670000
H       -0.05150000       4.60950000       1.81040000
H       -0.36750000       2.90250000       2.26720000
H        1.08770000       4.10650000      -1.27510000
H        2.12330000       1.73210000      -0.40000000
