18
Properties=species:S:1:pos:R:3 gdb_79166=T pbc="F F F"
C       -0.35590000       1.53980000       0.08190000
C        0.02390000       0.06000000      -0.03460000
C        0.78910000      -0.37750000      -1.26620000
C        2.23800000      -0.09540000      -1.45460000
C        2.98280000       0.19840000      -0.16080000
C        2.17930000      -0.99500000       0.44370000
N        1.77500000      -1.45110000      -0.95360000
C        0.94120000      -0.41850000       1.10480000
O        0.73010000      -0.30440000       2.28390000
H        0.51780000       2.18610000      -0.04550000
H       -1.09280000       1.81730000      -0.67750000
H       -0.78560000       1.73460000       1.06830000
H       -0.89170000      -0.54450000       0.03100000
H        0.22990000      -0.57060000      -2.17680000
H        2.65440000       0.02220000      -2.45070000
H        4.03940000      -0.06150000      -0.24820000
H        2.89480000       1.18580000       0.30210000
H        2.71780000      -1.73310000       1.03310000
