17
Properties=species:S:1:pos:R:3 gdb_70938=T pbc="F F F"
O       -0.01450000       1.37810000      -0.00670000
C        0.03150000       0.00460000       0.02200000
C        0.60280000      -0.98590000      -1.12650000
C       -0.01800000      -1.84460000      -0.00810000
C        0.68640000      -0.93190000       1.05850000
O       -0.48590000      -3.12270000       0.25930000
C       -1.67310000      -2.86120000       1.05400000
O       -1.93910000      -1.44710000       1.09980000
C       -1.21430000      -0.92450000      -0.00070000
H        0.87280000       1.72130000       0.14530000
H        0.08890000      -0.96530000      -2.08950000
H        1.68910000      -0.99900000      -1.23380000
H        1.77840000      -0.96170000       1.07420000
H        0.25100000      -0.93110000       2.05700000
H       -2.50530000      -3.40230000       0.58540000
H       -1.51980000      -3.20330000       2.08310000
H       -1.83250000      -0.86850000      -0.90340000
