13
Properties=species:S:1:pos:R:3 gdb_1214=T pbc="F F F"
N       -0.05390000       1.34550000       0.00930000
C        0.06670000      -0.01080000       0.00030000
O        1.14170000      -0.57810000      -0.01440000
C       -1.26230000      -0.76840000       0.01020000
C       -1.01930000      -2.28520000      -0.00110000
C       -2.27000000      -3.03890000       0.00790000
N       -3.26860000      -3.62040000       0.01530000
H        0.78540000       1.90130000       0.00370000
H       -0.94430000       1.81090000       0.02160000
H       -1.84080000      -0.48120000       0.89540000
H       -1.85950000      -0.47120000      -0.85920000
H       -0.43360000      -2.56210000      -0.88230000
H       -0.41490000      -2.57210000       0.86420000
