19
Properties=species:S:1:pos:R:3 gdb_79296=T pbc="F F F"
O       -0.07130000       1.47120000       0.01920000
C        0.00680000       0.05390000      -0.00330000
C       -1.37420000      -0.54480000      -0.20600000
C       -1.59270000      -0.65620000      -1.70120000
C       -0.33590000      -0.11210000      -2.38040000
C        0.65930000      -0.54160000      -1.28250000
C        0.31970000      -2.04610000      -1.12000000
O        0.91450000      -2.67890000       0.00320000
C       -1.17600000      -1.87560000      -0.90270000
H        0.80840000       1.81190000       0.20890000
H        0.48970000      -0.32880000       0.90330000
H       -2.18360000      -0.37030000       0.48930000
H       -2.57910000      -0.57290000      -2.13750000
H       -0.12890000      -0.58640000      -3.34550000
H       -0.36400000       0.97230000      -2.51110000
H        1.71160000      -0.30070000      -1.44520000
H        0.54000000      -2.61110000      -2.03860000
H        1.85390000      -2.78150000      -0.17930000
H       -1.83000000      -2.72090000      -0.73640000
