21
Properties=species:S:1:pos:R:3 gdb_118786=T pbc="F F F"
C       -0.03110000       1.28470000      -0.20800000
O        0.23480000      -0.09590000      -0.12230000
C        0.53920000      -0.52690000       1.19530000
C        0.64100000      -2.02670000       1.14080000
O       -0.55380000      -2.62410000       0.70040000
C        1.93880000      -2.72050000       0.75140000
C        1.36600000      -2.87800000       2.15120000
C        2.08340000      -2.30560000       3.34860000
O        0.75190000      -4.09110000       2.47940000
H        0.83870000       1.88630000       0.09860000
H       -0.26420000       1.50940000      -1.25160000
H       -0.88780000       1.57500000       0.42010000
H        1.47620000      -0.06990000       1.54620000
H       -0.26670000      -0.22580000       1.88470000
H       -0.74060000      -2.25360000      -0.17050000
H        1.85000000      -3.57600000       0.09090000
H        2.82630000      -2.11180000       0.60970000
H        2.62660000      -1.39070000       3.10030000
H        1.37790000      -2.09040000       4.15720000
H        2.80730000      -3.03820000       3.71970000
H       -0.02960000      -4.16680000       1.91540000
