14
Properties=species:S:1:pos:R:3 gdb_16716=T pbc="F F F"
C        0.07230000      -1.17310000       0.07510000
C       -0.01540000       0.02840000       0.03590000
C       -0.05910000       1.43990000      -0.02280000
C       -1.16040000       2.21470000      -0.04520000
C       -0.78510000       3.65430000      -0.00900000
O       -0.05350000       4.02110000       1.18690000
C        0.68840000       3.70990000       0.00860000
C        1.21620000       2.28340000      -0.03850000
H        0.13250000      -2.23250000       0.11340000
H       -2.17910000       1.85060000      -0.04980000
H       -1.42270000       4.43260000      -0.41560000
H        1.26030000       4.52950000      -0.41790000
H        1.86090000       2.05520000       0.81690000
H        1.80130000       2.09800000      -0.94690000
