19
Properties=species:S:1:pos:R:3 gdb_39099=T pbc="F F F"
C       -0.07490000       1.60700000       0.18390000
C        1.45340000       1.38400000       0.01290000
C        1.69760000       0.47570000       1.24570000
O        0.54980000      -0.42630000       1.16710000
C       -0.05520000       0.06300000      -0.01750000
C       -1.12570000      -0.66220000      -0.78120000
O       -0.99090000      -0.12270000      -2.10260000
C        0.32550000       0.45320000      -2.31790000
C        1.10890000       0.26600000      -1.02120000
H       -0.43690000       1.96510000       1.15020000
H       -0.54130000       2.15710000      -0.63150000
H        2.17260000       2.18560000      -0.15730000
H        2.62260000      -0.10870000       1.18770000
H        1.67450000       1.02430000       2.19320000
H       -0.94750000      -1.74800000      -0.76390000
H       -2.14830000      -0.46550000      -0.44500000
H        0.80350000      -0.07420000      -3.15050000
H        0.19170000       1.49910000      -2.61690000
H        1.82260000      -0.55980000      -1.08390000
