19
Properties=species:S:1:pos:R:3 gdb_81990=T pbc="F F F"
C       -0.14920000       1.55310000      -0.00600000
C        0.03650000       0.04440000      -0.06850000
C        0.73920000      -0.58810000      -1.27630000
C        2.18290000      -0.18220000      -1.34590000
C        1.77870000      -1.25110000      -0.37030000
C        1.14770000      -0.61470000       0.87280000
O        2.03840000       0.27810000       1.52470000
C        0.58710000      -1.57500000       1.81600000
C        0.11510000      -2.33650000       2.61880000
H        0.79660000       2.08580000      -0.12890000
H       -0.83420000       1.88620000      -0.79330000
H       -0.57870000       1.85570000       0.95570000
H       -0.91590000      -0.45820000       0.11890000
H        0.22650000      -1.02270000      -2.12540000
H        2.72360000      -0.54890000      -2.21250000
H        2.51910000       0.78410000      -0.98630000
H        2.18160000      -2.25510000      -0.39720000
H        1.63580000       0.54080000       2.35960000
H       -0.29460000      -3.01770000       3.32310000
