22
Properties=species:S:1:pos:R:3 gdb_11620=T pbc="F F F"
C        0.21130000       1.41150000       0.33050000
C       -0.02200000      -0.05620000      -0.04370000
C       -1.47300000      -0.32340000      -0.42960000
O        0.76850000      -0.45760000      -1.15560000
C        2.14750000      -0.62410000      -0.89180000
C        2.78620000      -1.31210000      -2.06760000
C        3.23440000      -0.50780000      -3.25950000
C        4.25760000      -1.11760000      -2.33470000
H        1.24630000       1.59530000       0.63290000
H       -0.01780000       2.05920000      -0.52220000
H       -0.43350000       1.70000000       1.16690000
H        0.24050000      -0.68740000       0.82390000
H       -1.75350000       0.28650000      -1.29430000
H       -1.60870000      -1.37490000      -0.69560000
H       -2.14600000      -0.08060000       0.39820000
H        2.64440000       0.34510000      -0.71940000
H        2.28510000      -1.22380000       0.02500000
H        2.37840000      -2.29720000      -2.27430000
H        3.10850000      -0.93830000      -4.24640000
H        3.09310000       0.56740000      -3.22260000
H        4.81050000      -0.45200000      -1.67930000
H        4.83120000      -1.96880000      -2.68380000
