21
Properties=species:S:1:pos:R:3 gdb_72379=T pbc="F F F"
C        0.03450000       1.55590000      -0.12820000
C        0.01370000       0.03500000       0.01870000
C        0.26050000      -0.58530000      -1.36880000
C        0.26550000      -2.08450000      -1.36650000
C        0.06390000      -2.71030000      -0.21110000
C       -0.15580000      -1.89100000       1.01800000
C        0.75380000      -0.63080000       1.24260000
C       -0.36600000      -0.09700000       2.17470000
C       -1.09590000      -0.63720000       0.91650000
H        1.00020000       1.88370000      -0.53140000
H       -0.73430000       1.87750000      -0.84100000
H       -0.13350000       2.10060000       0.80140000
H       -0.50220000      -0.21100000      -2.06870000
H        1.21400000      -0.20480000      -1.76610000
H        0.43220000      -2.61280000      -2.30080000
H        0.05360000      -3.79320000      -0.13110000
H       -0.31190000      -2.49460000       1.91530000
H        1.83030000      -0.64120000       1.43030000
H       -0.52610000      -0.66710000       3.09400000
H       -0.40550000       0.97180000       2.37780000
H       -2.17160000      -0.65520000       0.72480000
