14
Properties=species:S:1:pos:R:3 gdb_98044=T pbc="F F F"
O        0.09120000       1.38850000       0.00870000
C       -0.00890000      -0.00660000       0.00190000
C       -1.47760000      -0.41010000       0.01410000
O       -2.39210000       0.37560000       0.02760000
C       -1.69090000      -1.85200000       0.00830000
C       -1.88020000      -3.04190000       0.00360000
C       -2.09870000      -4.48470000      -0.00180000
C       -3.51730000      -4.86430000       0.00940000
N       -4.62580000      -5.18520000       0.01810000
H        1.02360000       1.62320000       0.00040000
H        0.44820000      -0.47260000      -0.88900000
H        0.46570000      -0.48260000       0.87820000
H       -1.62610000      -4.93210000      -0.88580000
H       -1.60980000      -4.94110000       0.86870000
