21
Properties=species:S:1:pos:R:3 gdb_98404=T pbc="F F F"
C       -0.22150000       1.49390000       0.17220000
C       -0.05920000      -0.00880000       0.15500000
C        1.18330000      -0.67390000      -0.32660000
C        0.84110000      -0.75020000       1.16310000
C        1.68890000       0.02160000       2.15750000
C        0.28210000      -2.06430000       1.59210000
O       -0.35600000      -2.78250000       0.83970000
C        0.49220000      -2.54610000       3.02510000
O       -0.12310000      -3.78030000       3.23200000
H        0.72850000       2.01570000       0.31370000
H       -0.63770000       1.83200000      -0.78300000
H       -0.90620000       1.81600000       0.96390000
H       -0.97090000      -0.55940000      -0.05780000
H        1.08830000      -1.59490000      -0.88980000
H        2.03340000      -0.05020000      -0.58560000
H        2.06470000       0.94720000       1.71770000
H        1.12580000       0.29420000       3.05660000
H        2.56210000      -0.55920000       2.47280000
H        1.57570000      -2.60110000       3.22210000
H        0.09640000      -1.78040000       3.71310000
H       -0.52400000      -3.99950000       2.37390000
