16
Properties=species:S:1:pos:R:3 gdb_13525=T pbc="F F F"
N       -0.09860000       1.32160000       0.25900000
C       -0.01410000       0.07820000      -0.28990000
O        0.81960000      -0.25000000      -1.11160000
C       -1.09050000      -0.91340000       0.15010000
N       -0.56250000      -2.13720000       0.79980000
C       -1.79560000      -2.24830000       1.61280000
C       -2.01490000      -0.73140000       1.39440000
O       -1.49650000       0.08920000       2.42760000
H        0.64180000       1.97120000       0.04310000
H       -0.64290000       1.45320000       1.10020000
H       -1.70860000      -1.12090000      -0.73790000
H       -0.33970000      -2.90870000       0.18160000
H       -2.60000000      -2.84450000       1.15810000
H       -1.64360000      -2.57910000       2.64610000
H       -3.03120000      -0.38340000       1.21020000
H       -0.63920000      -0.27820000       2.67800000
