17
Properties=species:S:1:pos:R:3 gdb_128408=T pbc="F F F"
C       -0.09140000       1.49170000      -0.30670000
N       -0.10970000       0.03280000      -0.19560000
H        0.09230000      -1.27290000      -1.58810000
H        0.67660000      -0.26960000       0.37380000
C       -1.34790000      -0.49780000       0.41190000
C       -1.37270000      -1.98620000       0.25230000
C       -0.77680000      -2.66570000      -0.78140000
O       -0.04310000      -2.23180000      -1.79410000
O       -0.98570000      -3.97480000      -0.69160000
N       -1.77400000      -4.22150000       0.45980000
C       -1.97570000      -3.03640000       0.98600000
H        0.87400000       1.81510000      -0.70420000
H       -0.87070000       1.81200000      -1.00500000
H       -0.26350000       2.00400000       0.65280000
H       -1.45300000      -0.20660000       1.46960000
H       -2.18580000      -0.02550000      -0.12000000
H       -2.56280000      -2.97270000       1.89310000
