17
Properties=species:S:1:pos:R:3 gdb_48244=T pbc="F F F"
O        0.11120000      -0.07000000       0.40640000
C        0.09780000       1.05090000      -0.03050000
C        1.32420000       1.93890000      -0.11980000
C        1.32140000       2.80700000      -1.36350000
O        2.30990000       3.08470000      -1.99050000
C        1.33400000       2.87270000       1.11950000
C        1.65740000       2.17680000       2.46290000
O        2.94150000       2.82580000       2.53420000
C        2.66500000       3.62200000       1.36600000
H       -0.85350000       1.52720000      -0.36320000
H        2.22560000       1.32020000      -0.10730000
H        0.32560000       3.22070000      -1.64640000
H        0.44070000       3.50290000       1.12920000
H        1.00190000       2.46460000       3.29470000
H        1.73970000       1.08520000       2.43030000
H        3.42990000       3.50930000       0.59030000
H        2.55090000       4.68620000       1.60840000
