16
Properties=species:S:1:pos:R:3 gdb_37206=T pbc="F F F"
C        0.02680000       1.51290000      -0.00900000
O        1.50090000       1.52460000      -0.02690000
C        1.51620000       0.08580000      -0.05200000
C        1.48350000      -0.64890000       1.30350000
O        0.02020000      -0.72690000       1.24580000
C        0.02250000      -0.03770000      -0.01420000
C        0.06680000      -0.90880000      -1.28000000
N        0.69080000      -0.05320000      -2.30380000
C        1.57700000      -0.74270000      -1.34060000
H       -0.36960000       1.96350000       0.90550000
H       -0.37900000       1.99460000      -0.90100000
H        1.93990000      -1.64390000       1.34380000
H        1.82850000      -0.04160000       2.14580000
H       -0.55800000      -1.75410000      -1.54120000
H        0.71880000      -0.58430000      -3.17280000
H        2.35110000      -1.41630000      -1.69020000
