20
Properties=species:S:1:pos:R:3 gdb_55122=T pbc="F F F"
C       -0.15690000       1.50300000       0.08430000
C        0.03400000       0.01560000       0.04270000
C       -0.76160000      -0.94530000       0.88050000
C        0.73810000      -0.95070000       1.00710000
C        1.34460000      -1.73390000      -0.16150000
C        0.64460000      -0.73350000      -1.15030000
C       -0.32720000      -1.21160000      -2.22070000
N        0.05710000      -2.33450000      -2.89720000
O       -1.36080000      -0.62080000      -2.47210000
H        0.75840000       2.03450000      -0.20320000
H       -0.95000000       1.80010000      -0.61030000
H       -0.43940000       1.84040000       1.08700000
H       -1.29620000      -0.48660000       1.70660000
H       -1.28370000      -1.78790000       0.43230000
H        1.24070000      -0.73710000       1.94300000
H        2.43430000      -1.68020000      -0.21440000
H        1.04070000      -2.78480000      -0.23060000
H        1.39920000      -0.11670000      -1.65270000
H        0.91480000      -2.81660000      -2.69580000
H       -0.52260000      -2.66370000      -3.65170000
