10
Properties=species:S:1:pos:R:3 gdb_21900=T pbc="F F F"
O        0.13240000       1.33450000       0.03710000
C        0.08320000       0.00200000       0.03080000
N        0.08290000      -0.74080000      -1.06790000
N        0.02450000      -1.98520000      -0.57910000
N       -0.01250000      -2.11510000       0.72460000
C        0.02400000      -0.84550000       1.16360000
C        0.00310000      -0.49690000       2.53570000
N       -0.01260000      -0.17980000       3.64820000
H        0.16650000       1.64380000      -0.87730000
H        0.00980000      -2.78730000      -1.18900000
