18
Properties=species:S:1:pos:R:3 gdb_57942=T pbc="F F F"
C        0.99480000       1.27250000      -0.33320000
C       -0.10520000       0.28000000       0.07560000
O       -0.45690000      -0.54040000      -1.00540000
C        0.34870000      -0.60960000       1.24380000
O        0.53160000      -1.80810000       1.05340000
N        0.52300000       0.01970000       2.43490000
C        0.97140000      -0.49660000       3.67530000
N        1.09020000      -1.85520000       3.72120000
N        1.16020000       0.37690000       4.58860000
H        1.90840000       0.73450000      -0.60260000
H        0.65530000       1.83280000      -1.20750000
H        1.22850000       1.98560000       0.46410000
H       -0.99170000       0.84420000       0.40660000
H       -0.18240000      -1.43560000      -0.74860000
H        0.36560000       1.01580000       2.48550000
H        1.06270000      -2.35980000       2.84430000
H        1.60180000      -2.24700000       4.49260000
H        1.45970000      -0.05580000       5.45980000
