16
Properties=species:S:1:pos:R:3 gdb_43938=T pbc="F F F"
O       -0.14840000       0.09970000      -0.67300000
C       -0.06150000       1.15860000      -0.15060000
O       -1.11700000       1.96680000       0.31000000
C       -0.14600000       2.79230000       1.02640000
C        0.35240000       4.22490000       1.32100000
N        1.38810000       3.45710000       2.16850000
C        0.25900000       2.49220000       2.47020000
C        2.14810000       2.59160000       1.17320000
C        0.99060000       2.23660000       0.20040000
H        0.75420000       4.82010000       0.49890000
H       -0.25650000       4.83030000       1.99250000
H       -0.41570000       2.90680000       3.22100000
H        0.56760000       1.47930000       2.74080000
H        2.93130000       3.17240000       0.68340000
H        2.60770000       1.76400000       1.71440000
H        1.09650000       2.80030000      -0.73390000
