19
Properties=species:S:1:pos:R:3 gdb_55378=T pbc="F F F"
C        0.17840000       1.40960000       0.25500000
C       -0.04290000      -0.07370000       0.02930000
O       -0.23300000      -0.85280000       0.92930000
C       -0.00920000      -0.56130000      -1.44160000
O        0.55180000      -1.85560000      -1.51810000
C       -0.46420000      -2.81160000      -1.82300000
C       -1.66010000      -1.98730000      -2.19630000
C       -1.41930000      -0.69380000      -1.99890000
C       -2.32200000       0.47440000      -2.23350000
H        1.22980000       1.64940000       0.05330000
H       -0.41870000       2.01360000      -0.43680000
H       -0.05850000       1.67270000       1.28660000
H        0.60550000       0.13570000      -2.03380000
H       -0.11180000      -3.45590000      -2.64140000
H       -0.65640000      -3.45480000      -0.95110000
H       -2.58450000      -2.41320000      -2.56710000
H       -3.25980000       0.15880000      -2.69730000
H       -2.57150000       0.99030000      -1.29800000
H       -1.85160000       1.21740000      -2.88970000
