19
Properties=species:S:1:pos:R:3 gdb_47902=T pbc="F F F"
O       -0.52900000       1.27530000      -1.25840000
C       -0.07270000       1.38620000      -0.15040000
O       -0.85030000       1.26540000       0.98000000
C       -1.73550000       2.36780000       1.22790000
C       -0.94350000       3.65340000       1.46990000
C        0.08870000       3.58110000       2.60940000
C        1.08500000       2.38800000       2.59020000
C        1.82390000       2.16170000       1.29180000
C        1.34470000       1.68200000       0.13350000
H       -2.42560000       2.48580000       0.38400000
H       -2.31210000       2.07670000       2.11060000
H       -0.44280000       3.93540000       0.53620000
H       -1.65360000       4.46150000       1.68350000
H        0.65590000       4.51940000       2.60910000
H       -0.43500000       3.54260000       3.57270000
H        1.82220000       2.56570000       3.38000000
H        0.54670000       1.47560000       2.85260000
H        2.88020000       2.42610000       1.29990000
H        1.99670000       1.58550000      -0.72880000
