17
Properties=species:S:1:pos:R:3 gdb_36587=T pbc="F F F"
C        0.29660000      -0.28050000       1.34950000
C        0.10420000       0.45780000       0.41970000
C       -0.09850000       1.33120000      -0.74320000
N        1.03150000       2.19390000      -1.10520000
C        1.28530000       3.31060000      -0.23100000
C        1.93730000       3.16660000       1.14770000
C        2.71620000       3.74470000       0.00120000
C        0.29580000       4.36030000      -0.36320000
N       -0.50960000       5.18620000      -0.44790000
H        0.45050000      -0.92830000       2.17720000
H       -0.33680000       0.71290000      -1.61630000
H       -0.97100000       1.97410000      -0.57970000
H        1.87390000       1.64790000      -1.23750000
H        1.60980000       3.83220000       1.93770000
H        2.15080000       2.15180000       1.45800000
H        3.48230000       3.13450000      -0.46640000
H        2.92580000       4.80730000      -0.00690000
