21
Properties=species:S:1:pos:R:3 gdb_74305=T pbc="F F F"
C        0.11050000       1.52280000       0.09970000
C        0.04230000       0.02820000      -0.04550000
C        0.18640000      -0.58120000      -1.23180000
C        0.09020000      -2.01250000      -1.54160000
C       -0.11230000      -2.30660000      -3.01410000
C        0.14040000      -3.03090000      -0.66620000
C        0.39800000      -3.03090000       0.81290000
O        0.75670000      -1.80690000       1.40580000
C       -0.18530000      -0.75980000       1.22530000
H        0.94320000       1.81790000       0.75200000
H        0.23870000       2.01930000      -0.86550000
H       -0.80140000       1.91950000       0.56630000
H        0.34860000       0.05560000      -2.10060000
H        0.72860000      -1.92510000      -3.60690000
H       -0.20190000      -3.37840000      -3.20600000
H       -1.01430000      -1.81360000      -3.39710000
H        0.00290000      -4.03790000      -1.05990000
H       -0.47610000      -3.47490000       1.32750000
H        1.24170000      -3.70260000       1.02310000
H       -0.07840000      -0.10270000       2.09530000
H       -1.21180000      -1.16140000       1.24340000
