19
Properties=species:S:1:pos:R:3 gdb_119291=T pbc="F F F"
C        0.00130000       1.54400000       0.06540000
C        0.04270000       0.02990000      -0.04370000
O        0.58950000      -0.47900000       1.16880000
C        0.73450000      -1.87790000       1.22820000
C        1.95000000      -2.46280000       0.43850000
O        2.62140000      -2.82640000       1.65620000
C        1.57350000      -2.27260000       2.47060000
C       -0.52650000      -2.59420000       1.05970000
C       -1.56020000      -3.19320000       0.92460000
H        1.00630000       1.94920000       0.21310000
H       -0.41790000       1.97750000      -0.84750000
H       -0.61960000       1.84940000       0.91210000
H       -0.96350000      -0.38080000      -0.20290000
H        0.66470000      -0.27980000      -0.89830000
H        1.74110000      -3.33020000      -0.19600000
H        2.49860000      -1.70160000      -0.12960000
H        1.89770000      -1.39460000       3.04010000
H        1.12330000      -3.01640000       3.13500000
H       -2.47390000      -3.72270000       0.80920000
