21
Properties=species:S:1:pos:R:3 gdb_104743=T pbc="F F F"
C        0.81390000      -0.41170000       1.39940000
C        0.13670000       0.08270000       0.11780000
C        0.76260000      -0.37870000      -1.20110000
C        0.60040000       0.59010000      -2.36740000
C        1.47630000       1.84520000      -2.25010000
N        2.01330000      -1.14180000      -1.11260000
C        0.79210000      -1.83840000      -1.56700000
C        0.25550000      -2.87760000      -0.72190000
N       -0.21700000      -3.71310000      -0.07650000
H        0.78970000      -1.49970000       1.48520000
H        1.86010000      -0.09890000       1.43460000
H        0.29800000       0.00490000       2.26990000
H       -0.91980000      -0.21400000       0.11110000
H        0.13580000       1.17860000       0.12250000
H        0.84220000       0.07200000      -3.30390000
H       -0.45480000       0.88070000      -2.44090000
H        1.23310000       2.43280000      -1.36020000
H        2.53890000       1.58580000      -2.19470000
H        1.33630000       2.49140000      -3.12140000
H        2.61320000      -0.96310000      -1.91540000
H        0.69900000      -2.07130000      -2.62490000
