13
Properties=species:S:1:pos:R:3 gdb_716=T pbc="F F F"
C       -0.01650000       1.50050000       0.14190000
C        1.49200000       1.37980000       0.03140000
C        1.91800000       0.09310000       0.66310000
C        0.68700000      -0.62410000       1.18500000
C        0.00970000      -0.02660000      -0.06370000
N        1.41170000       0.09830000      -0.75470000
H       -0.46680000       1.89920000       1.05750000
H       -0.43030000       2.01260000      -0.73050000
H        2.20750000       2.15090000      -0.23170000
H        2.95880000      -0.11800000       0.88230000
H        0.80130000      -1.70740000       1.09590000
H        0.28480000      -0.37090000       2.17200000
H       -0.79670000      -0.54590000      -0.57750000
