11
Properties=species:S:1:pos:R:3 gdb_4421=T pbc="F F F"
O        0.04580000       1.32360000       0.00720000
C       -0.04490000      -0.00420000       0.00110000
C       -1.22290000      -0.68810000       0.00420000
N       -1.21600000      -2.04940000      -0.00260000
C       -0.08990000      -2.69350000      -0.01210000
C        1.21750000      -2.05940000      -0.01600000
O        2.30900000      -2.54520000      -0.02470000
O        1.13130000      -0.62870000      -0.00850000
H        0.98210000       1.56710000       0.00330000
H       -2.16990000      -0.16730000       0.01210000
H       -0.09300000      -3.77880000      -0.01760000
