20
Properties=species:S:1:pos:R:3 gdb_98662=T pbc="F F F"
C       -0.32180000       1.53870000       0.08630000
C       -0.00010000       0.04630000       0.04580000
C        0.77430000      -0.41280000       1.27890000
O        1.18860000       0.34810000       2.13760000
N        0.97030000      -1.75610000       1.37000000
C        0.81690000      -2.87560000       0.43760000
C        1.58800000      -3.76310000       1.44740000
O        2.72050000      -4.34740000       0.85680000
C        1.81460000      -2.48300000       2.31520000
H        0.59290000       2.12720000       0.18650000
H       -0.84100000       1.84670000      -0.82580000
H       -0.95520000       1.77800000       0.94420000
H       -0.91540000      -0.55250000      -0.04380000
H        0.59760000      -0.19620000      -0.84370000
H       -0.21840000      -3.16330000       0.22650000
H        1.36370000      -2.75970000      -0.50560000
H        0.95480000      -4.51040000       1.94040000
H        3.19060000      -4.85090000       1.52920000
H        2.85640000      -2.14280000       2.32260000
H        1.43040000      -2.50350000       3.33980000
