15
Properties=species:S:1:pos:R:3 gdb_17235=T pbc="F F F"
O       -0.21810000       0.39540000      -0.76340000
C        0.15260000       1.05310000       0.18350000
C        1.38510000       1.85040000       0.20810000
C        1.94740000       2.82190000       1.23570000
N        2.79600000       3.45080000       0.14680000
C        3.73940000       2.30280000      -0.18760000
C        2.55970000       1.54530000      -0.77050000
C        1.82920000       2.82850000      -0.87770000
H       -0.45340000       1.10660000       1.11650000
H        1.20480000       3.54690000       1.57890000
H        2.51780000       2.44360000       2.09100000
H        4.44400000       2.63040000      -0.95550000
H        4.28350000       1.89370000       0.66990000
H        2.49990000       0.67890000      -1.41530000
H        1.26630000       3.34220000      -1.64340000
