16
Properties=species:S:1:pos:R:3 gdb_23007=T pbc="F F F"
O       -0.44070000       1.28520000       0.80970000
N       -0.46320000      -0.09950000       0.91110000
C       -1.43370000      -0.64010000       0.24960000
C       -2.37870000       0.10830000      -0.51070000
C       -3.19900000       0.69330000      -1.16910000
C       -1.59640000      -2.11320000       0.30240000
C       -0.37700000      -3.03350000       0.37470000
C       -1.23040000      -2.87090000       1.59010000
O       -0.79650000      -2.20190000       2.71700000
H        0.34320000       1.52210000       1.31810000
H       -3.91500000       1.22570000      -1.74570000
H       -2.45320000      -2.47090000      -0.25500000
H       -0.41770000      -3.95870000      -0.19030000
H        0.58740000      -2.53660000       0.38270000
H       -1.89470000      -3.68540000       1.86120000
H       -0.39940000      -1.36400000       2.42220000
