17
Properties=species:S:1:pos:R:3 gdb_103520=T pbc="F F F"
O       -0.07210000       1.44000000       0.10370000
C        0.02570000       0.01960000       0.00260000
C       -1.41600000      -0.49600000      -0.03230000
O       -2.10540000      -0.03260000       1.12080000
C       -2.13890000      -0.12860000      -1.32570000
C       -2.61600000      -1.20170000      -1.95980000
C       -2.24270000      -2.44670000      -1.22340000
O       -0.80650000      -2.64530000      -1.11980000
C       -1.49340000      -2.02470000      -0.03410000
H        0.79770000       1.79630000       0.30320000
H        0.56050000      -0.29130000      -0.90210000
H        0.53430000      -0.40180000       0.88150000
H       -1.81970000       0.88260000       1.24260000
H       -2.20270000       0.89910000      -1.66280000
H       -3.16490000      -1.20220000      -2.89360000
H       -2.82490000      -3.36070000      -1.27850000
H       -1.49550000      -2.54870000       0.91770000
