15
Properties=species:S:1:pos:R:3 gdb_130965=T pbc="F F F"
O        0.34970000      -0.23320000       0.29090000
C        0.32070000       0.74660000      -0.40590000
C        0.88550000       2.10130000       0.00140000
N        0.68880000       3.06000000      -1.05870000
C        1.11490000       4.24570000      -0.85580000
N        1.01690000       5.30410000      -1.75690000
C        1.58270000       6.41720000      -1.19050000
N        2.04270000       6.18850000      -0.00340000
N        1.75710000       4.85210000       0.20710000
H       -0.12890000       0.74550000      -1.42380000
H        0.38890000       2.38220000       0.94860000
H        1.94870000       1.93930000       0.25850000
H        0.59050000       5.21370000      -2.66190000
H        1.63490000       7.37340000      -1.68570000
H        2.01910000       4.42480000       1.07580000
