21
Properties=species:S:1:pos:R:3 gdb_62756=T pbc="F F F"
C        0.13140000       1.54740000       0.10500000
C        0.07670000       0.03120000       0.04080000
C       -1.26490000      -0.49020000      -0.44680000
C        1.28180000      -0.79230000      -0.37100000
C        2.65800000      -0.15900000      -0.38550000
C        2.91710000       0.33260000       1.04940000
O        3.82510000       1.04430000       1.39000000
C        1.82630000      -0.22900000       1.97790000
C        0.77400000      -0.83510000       1.07200000
H        1.08860000       1.94170000       0.45350000
H       -0.05600000       1.98000000      -0.88470000
H       -0.64210000       1.93060000       0.78090000
H       -1.48940000      -0.11770000      -1.45320000
H       -1.28080000      -1.58380000      -0.48480000
H       -2.07660000      -0.16720000       0.21560000
H        1.10530000      -1.63310000      -1.03300000
H        3.42870000      -0.90000000      -0.63300000
H        2.78640000       0.67150000      -1.08700000
H        2.28610000      -0.99620000       2.61380000
H        1.47200000       0.56070000       2.64790000
H        0.23770000      -1.70620000       1.43240000
