18
Properties=species:S:1:pos:R:3 gdb_65636=T pbc="F F F"
O        0.07500000       1.22160000       0.44570000
C        0.08450000      -0.15200000       0.09650000
C        0.32370000      -1.04390000       1.35270000
N       -0.98990000      -1.73370000       1.19950000
C       -2.09260000      -1.06840000       1.97030000
C       -2.48090000      -0.18460000       0.75320000
C       -1.31740000      -0.86240000       0.00440000
C        0.95120000      -0.40360000      -1.04590000
C        1.64120000      -0.59100000      -2.01320000
H        0.05850000       1.73650000      -0.36890000
H        1.17120000      -1.72800000       1.27010000
H        0.42370000      -0.44700000       2.26520000
H       -2.85640000      -1.78770000       2.28000000
H       -1.74620000      -0.52890000       2.85870000
H       -3.46600000      -0.38920000       0.32990000
H       -2.36240000       0.89110000       0.89210000
H       -1.53090000      -1.35920000      -0.94500000
H        2.26150000      -0.76310000      -2.85810000
