16
Properties=species:S:1:pos:R:3 gdb_126449=T pbc="F F F"
C       -0.45500000       1.45070000       0.26880000
C        0.28910000       0.15030000      -0.07540000
C        0.88220000      -0.51760000       1.12840000
N        2.18720000      -0.60220000       1.26470000
O        2.41770000      -1.25100000       2.46740000
C        1.22660000      -1.54900000       3.03940000
C        0.21440000      -1.10740000       2.23810000
C        1.23800000      -2.21850000       4.27820000
C        1.24020000      -2.79010000       5.33710000
H        0.22140000       2.17570000       0.73040000
H       -0.87480000       1.90190000      -0.63480000
H       -1.27810000       1.26790000       0.96680000
H       -0.39910000      -0.54740000      -0.56730000
H        1.09880000       0.35400000      -0.78170000
H       -0.84410000      -1.19660000       2.41570000
H        1.24430000      -3.29500000       6.27180000
