17
Properties=species:S:1:pos:R:3 gdb_20091=T pbc="F F F"
O       -0.15950000       0.98310000      -0.61030000
C       -0.17400000      -0.32290000      -0.12830000
C       -0.39280000      -0.52030000       1.35040000
O       -0.72010000       0.64890000       2.06140000
C       -1.45510000      -0.98480000       0.37780000
C       -2.81600000      -0.35310000       0.35560000
C       -3.21520000       0.67610000      -0.64310000
N       -3.75150000      -0.69280000      -0.73500000
H       -0.52100000       1.53260000       0.09970000
H        0.54230000      -0.94310000      -0.65740000
H        0.17170000      -1.25900000       1.91570000
H        0.10090000       1.03290000       2.38970000
H       -1.47720000      -2.06650000       0.25320000
H       -3.30640000      -0.31940000       1.32600000
H       -3.94520000       1.43200000      -0.36610000
H       -2.47260000       0.99320000      -1.36560000
H       -3.24430000      -1.19440000      -1.46150000
