19
Properties=species:S:1:pos:R:3 gdb_47040=T pbc="F F F"
O       -0.21110000       0.61010000       1.10340000
C       -0.12840000       1.33900000       0.15350000
C       -1.27730000       1.67910000      -0.78180000
C       -1.34770000       3.17810000      -1.09310000
C       -1.49050000       4.13030000       0.13250000
C       -0.08650000       4.73220000      -0.16390000
C        0.05940000       3.78710000      -1.39340000
C        1.16130000       2.74470000      -1.31640000
O        1.06020000       1.93730000      -0.12940000
H       -1.13100000       1.11740000      -1.71460000
H       -2.19460000       1.30810000      -0.31980000
H       -2.09040000       3.35420000      -1.87460000
H       -2.31760000       4.83920000       0.05520000
H       -1.57280000       3.61640000       1.09400000
H       -0.08690000       5.79510000      -0.41360000
H        0.65470000       4.56230000       0.62040000
H        0.13480000       4.30630000      -2.35290000
H        1.14310000       2.09210000      -2.19990000
H        2.15190000       3.20370000      -1.25920000
