19
Properties=species:S:1:pos:R:3 gdb_46206=T pbc="F F F"
O        0.06480000       0.08160000      -0.52320000
C        0.03780000       1.22700000      -0.16170000
C       -1.06270000       2.13860000       0.42110000
C       -0.01100000       3.29280000       0.49010000
C        1.05000000       2.33930000      -0.09480000
C        2.50770000       2.29900000       0.31470000
C        3.18700000       1.03660000      -0.23420000
C        2.79140000       1.48410000      -1.68210000
C        2.12460000       2.73220000      -1.08720000
H       -1.90430000       2.30230000      -0.25750000
H       -1.45550000       1.79560000       1.38230000
H       -0.24890000       4.15360000      -0.13950000
H        0.20010000       3.64660000       1.50200000
H        2.83350000       2.89660000       1.15880000
H        4.26790000       1.04400000      -0.07870000
H        2.78020000       0.08350000       0.10960000
H        3.66290000       1.72850000      -2.29320000
H        2.13840000       0.80950000      -2.23940000
H        2.10080000       3.72530000      -1.52230000
