14
Properties=species:S:1:pos:R:3 gdb_19579=T pbc="F F F"
O        0.00450000      -0.01220000       0.04750000
C       -0.01420000       1.16780000      -0.05320000
C       -1.05720000       2.32210000       0.02230000
N       -0.02670000       2.91480000       0.95320000
C        0.99610000       2.35220000      -0.00460000
C        0.68460000       3.04870000      -1.34820000
N       -0.05840000       2.17750000      -2.29080000
C       -0.80170000       3.02680000      -1.32870000
H       -2.07430000       2.20930000       0.39150000
H       -0.04190000       3.93580000       0.93370000
H        2.02540000       2.26960000       0.33770000
H        1.28180000       3.87350000      -1.71880000
H       -0.07680000       2.60560000      -3.21510000
H       -1.43230000       3.83370000      -1.68320000
