21
Properties=species:S:1:pos:R:3 gdb_64091=T pbc="F F F"
C       -0.16420000       1.59550000       0.01170000
C       -0.03500000       0.06280000       0.00320000
C       -1.42760000      -0.58150000       0.00240000
C        0.74590000      -0.41050000      -1.23790000
N        2.13500000       0.01170000      -1.16290000
C        2.88000000       0.03640000      -0.00250000
O        4.09390000       0.15170000      -0.00410000
N        2.13950000      -0.00100000       1.16050000
C        0.75060000      -0.42370000       1.23630000
H        0.81290000       2.08230000       0.01260000
H       -0.71540000       1.93970000      -0.86990000
H       -0.71230000       1.93030000       0.89880000
H       -2.00030000      -0.27230000      -0.87830000
H       -1.36480000      -1.67500000      -0.00360000
H       -1.99690000      -0.28190000       0.88860000
H        0.65920000      -1.50620000      -1.32150000
H        0.29890000       0.01550000      -2.14330000
H        2.70740000      -0.05810000      -1.98900000
H        2.71500000      -0.07970000       1.98360000
H        0.30710000      -0.00720000       2.14790000
H        0.66400000      -1.52020000       1.30870000
