18
Properties=species:S:1:pos:R:3 gdb_26947=T pbc="F F F"
C       -0.23710000       1.51980000       0.09170000
C       -0.02990000       0.04810000       0.01260000
C        0.20970000      -0.78000000      -1.05650000
N        0.33720000      -2.09210000      -0.65060000
C        0.17760000      -2.06780000       0.65070000
N       -0.04670000      -0.80240000       1.10470000
N        0.31260000      -0.34890000      -2.39650000
C        1.26490000      -1.07280000      -3.25260000
C       -0.19470000      -1.26760000      -3.42740000
H        0.52040000       2.01520000       0.71180000
H       -0.17010000       1.92920000      -0.91820000
H       -1.22070000       1.78140000       0.50150000
H        0.21280000      -2.92080000       1.31230000
H       -0.19790000      -0.53050000       2.06150000
H        1.82470000      -0.44940000      -3.94430000
H        1.81720000      -1.88680000      -2.79260000
H       -0.60880000      -2.21050000      -3.08300000
H       -0.72030000      -0.78900000      -4.24900000
