16
Properties=species:S:1:pos:R:3 gdb_44660=T pbc="F F F"
N       -0.07070000       1.27800000      -0.34950000
C       -0.02290000       0.06280000      -0.00740000
O        1.13030000      -0.63470000       0.25570000
C        0.78530000      -1.91820000       0.85620000
C        0.62020000      -1.64460000       2.34200000
C       -0.65960000      -1.37210000       2.60670000
C       -1.51560000      -1.60650000       1.40670000
C       -0.64410000      -2.22970000       0.35950000
C       -1.19060000      -0.86090000       0.08330000
H        0.86980000       1.67510000      -0.38270000
H        1.56260000      -2.62350000       0.56490000
H        1.46410000      -1.49640000       3.00340000
H       -1.05130000      -1.00040000       3.54580000
H       -2.55290000      -1.89850000       1.52100000
H       -0.88600000      -3.12050000      -0.20450000
H       -2.01640000      -0.67630000      -0.59090000
