21
Properties=species:S:1:pos:R:3 gdb_37931=T pbc="F F F"
C       -0.02060000       1.55240000      -0.15670000
C        1.43130000       2.01010000       0.00660000
C        2.23260000       1.77840000       1.27270000
C        1.69730000       1.37070000       2.63050000
C        0.47580000       0.43000000       2.59750000
C        0.41290000      -0.49120000       1.38700000
C       -0.02850000       0.03760000       0.04240000
C        1.40340000      -0.42490000       0.23620000
C        2.31540000       0.78010000       0.14430000
H       -0.71140000       2.07150000       0.51970000
H       -0.34910000       1.78560000      -1.17560000
H        1.74930000       2.84720000      -0.60670000
H        3.09230000       2.44090000       1.34880000
H        2.51930000       0.87280000       3.16160000
H        1.45300000       2.26230000       3.22000000
H        0.47780000      -0.17490000       3.50960000
H       -0.44630000       1.02340000       2.63840000
H        0.05180000      -1.49150000       1.60900000
H       -0.74140000      -0.54780000      -0.52900000
H        1.75890000      -1.35700000      -0.18740000
H        3.23970000       0.66730000      -0.41090000
