17
Properties=species:S:1:pos:R:3 gdb_15783=T pbc="F F F"
O       -0.47070000       1.28810000       0.08190000
C       -0.10580000      -0.07740000       0.04220000
C        0.74570000      -0.40000000      -1.20980000
C        0.08990000      -0.02640000      -2.46020000
N       -0.42720000       0.26180000      -3.45220000
C        0.61120000      -0.54580000       1.30010000
C        1.57930000       0.35170000       2.03420000
C        0.23840000       0.01940000       2.64170000
H        0.32730000       1.82400000       0.01410000
H       -1.05750000      -0.61460000      -0.04410000
H        1.70830000       0.12230000      -1.13980000
H        0.97340000      -1.47150000      -1.23670000
H        0.86910000      -1.60170000       1.27700000
H        2.47240000      -0.09600000       2.45490000
H        1.72430000       1.36820000       1.68220000
H       -0.50370000       0.80930000       2.64780000
H        0.20440000      -0.65110000       3.49260000
