20
Properties=species:S:1:pos:R:3 gdb_72017=T pbc="F F F"
C       -0.01320000       1.51430000       0.01410000
C        0.00310000       0.00560000      -0.05420000
C        0.80160000      -0.70950000      -1.15980000
C        0.63450000      -2.11020000      -0.54460000
C        1.33080000      -1.92460000       0.81760000
C        0.35980000      -0.82830000       1.27960000
C       -0.99960000      -1.52610000       1.13350000
C       -1.32460000      -0.77760000      -0.09850000
N       -0.84500000      -2.17870000      -0.19400000
H        0.99420000       1.91600000       0.16950000
H       -0.40350000       1.94740000      -0.91450000
H       -0.64450000       1.87000000       0.83570000
H        0.32520000      -0.60340000      -2.13990000
H        1.85030000      -0.40390000      -1.23730000
H        0.92380000      -2.96900000      -1.14870000
H        1.28770000      -2.81300000       1.45520000
H        2.37260000      -1.60570000       0.71690000
H        0.58000000      -0.26090000       2.18220000
H       -1.62380000      -1.99060000       1.88900000
H       -2.26830000      -0.49670000      -0.55570000
