14
Properties=species:S:1:pos:R:3 gdb_48696=T pbc="F F F"
O       -0.04540000      -0.01900000       0.02180000
C        0.02160000       1.17500000      -0.10860000
C        1.27230000       1.95170000      -0.09070000
C        1.38780000       3.38700000       0.36730000
C        1.79060000       3.04320000      -1.03300000
C        3.09410000       2.23440000      -0.99340000
O        2.54420000       1.30700000      -0.02260000
C        3.42710000       1.56910000      -2.25410000
N        3.69680000       1.07460000      -3.26230000
H       -0.87970000       1.81460000      -0.24910000
H        0.45370000       3.93390000       0.44770000
H        2.13000000       3.61440000       1.12640000
H        1.33800000       3.45830000      -1.92210000
H        3.97890000       2.75230000      -0.60710000
