14
Properties=species:S:1:pos:R:3 gdb_26897=T pbc="F F F"
N        0.08000000       1.35170000      -0.22300000
C       -0.01980000       0.00490000      -0.09700000
C       -1.21230000      -0.67640000       0.03730000
N       -2.41740000       0.08470000       0.09890000
N       -1.21140000      -2.01870000       0.15470000
C       -0.08920000      -2.68500000       0.12530000
C        1.20840000      -2.07250000      -0.04860000
O        2.29520000      -2.57460000      -0.10850000
O        1.14050000      -0.64830000      -0.15380000
H        0.97580000       1.76820000      -0.02130000
H       -0.74980000       1.85550000       0.05710000
H       -3.06980000      -0.36910000       0.73110000
H       -2.87620000       0.12330000      -0.80870000
H       -0.10500000      -3.76360000       0.23950000
