15
Properties=species:S:1:pos:R:3 gdb_130854=T pbc="F F F"
O       -0.09760000      -0.03980000      -0.17480000
C       -0.03500000       1.16510000      -0.05270000
C        1.19980000       1.92900000       0.00880000
C        1.40670000       3.30130000       0.14620000
C        1.12960000       4.79230000       0.30430000
C        2.70520000       4.95130000       0.30180000
N        2.72530000       3.48800000       0.14900000
N        3.48080000       2.37750000       0.02670000
C        2.54440000       1.43050000      -0.05870000
H       -0.96080000       1.77960000       0.02240000
H        0.62380000       5.27140000      -0.53620000
H        0.64530000       5.08720000       1.23710000
H        3.12800000       5.49060000      -0.54860000
H        3.14900000       5.30450000       1.23510000
H        2.83130000       0.39530000      -0.16770000
