15
Properties=species:S:1:pos:R:3 gdb_64627=T pbc="F F F"
O       -0.07120000       1.44770000      -0.00220000
C        0.01240000       0.02670000       0.01480000
C        0.64110000      -0.51910000       1.30350000
C       -0.17860000      -1.33630000       1.96270000
C       -1.49650000      -1.42600000       1.25850000
O       -2.17130000      -0.14560000       1.19980000
C       -1.41180000      -0.56450000       0.07560000
C        0.72610000      -0.47440000      -1.16350000
C        1.32780000      -0.86110000      -2.13030000
H        0.78470000       1.78740000      -0.28520000
H        1.63070000      -0.20400000       1.61260000
H        0.03280000      -1.83000000       2.90320000
H       -2.14440000      -2.29340000       1.32790000
H       -1.95560000      -0.72420000      -0.85000000
H        1.85560000      -1.20860000      -2.98430000
