15
Properties=species:S:1:pos:R:3 gdb_48553=T pbc="F F F"
O       -0.12990000       0.00780000      -0.11830000
C       -0.02060000       1.19870000       0.06400000
C        1.24280000       1.92520000      -0.01180000
C        1.93490000       2.99090000       0.85790000
O        3.17390000       2.30300000       0.86650000
C        2.68240000       1.40330000      -0.18630000
C        3.13910000       1.99300000      -1.50900000
O        2.51780000       3.29350000      -1.54170000
C        1.53510000       3.32330000      -0.54740000
H       -0.90290000       1.83250000       0.30870000
H        1.60580000       3.49100000       1.76220000
H        2.90780000       0.35720000       0.01170000
H        4.22350000       2.12410000      -1.54820000
H        2.80540000       1.39000000      -2.36530000
H        0.72850000       4.02290000      -0.73420000
