19
Properties=species:S:1:pos:R:3 gdb_68557=T pbc="F F F"
C       -0.03640000       1.53790000       0.03900000
C        0.00620000       0.02910000      -0.00190000
C        0.34000000      -0.79770000      -1.29630000
C       -0.30690000      -1.95260000      -0.46280000
C        0.67370000      -2.01730000       0.71670000
C        0.87600000      -0.73380000       1.01650000
C       -1.31750000      -0.85150000       0.04630000
C       -2.05050000      -1.01660000       1.28370000
C       -2.68110000      -1.13550000       2.30120000
H        0.96480000       1.96350000      -0.09220000
H       -0.67700000       1.94030000      -0.75240000
H       -0.42740000       1.89120000       0.99940000
H       -0.24980000      -0.49680000      -2.16910000
H        1.39510000      -0.90620000      -1.55400000
H       -0.65910000      -2.87950000      -0.91280000
H        1.07010000      -2.91310000       1.17220000
H        1.48420000      -0.28050000       1.78660000
H       -2.00240000      -0.55200000      -0.75600000
H       -3.23110000      -1.24700000       3.20250000
