16
Properties=species:S:1:pos:R:3 gdb_25977=T pbc="F F F"
N        0.21700000       1.18330000      -0.29970000
C       -0.02720000       0.01780000       0.35210000
O        0.65650000      -0.35690000       1.29200000
C       -1.25050000      -0.76720000      -0.13170000
C       -1.01610000      -2.24310000      -0.19500000
C       -1.44050000      -3.21390000      -1.06800000
N       -0.99340000      -4.45400000      -0.67440000
C       -0.30350000      -4.23570000       0.42350000
N       -0.29650000      -2.91880000       0.76550000
H        1.00380000       1.73990000      -0.00620000
H       -0.30400000       1.46880000      -1.10930000
H       -2.05140000      -0.52910000       0.58470000
H       -1.59490000      -0.41450000      -1.10800000
H       -2.04560000      -3.08820000      -1.95400000
H        0.20930000      -4.98510000       1.00760000
H        0.22780000      -2.43990000       1.48460000
