23
Properties=species:S:1:pos:R:3 gdb_93033=T pbc="F F F"
C       -0.30660000       1.47660000       0.04600000
C        0.06160000      -0.01040000      -0.03390000
C        0.84230000      -0.34120000      -1.33860000
C        2.32660000      -0.05130000      -1.28320000
C        3.17800000      -0.78520000      -0.56260000
C        2.72960000      -1.94290000       0.26420000
C        2.88580000      -1.95390000       1.76960000
C        1.51510000      -1.78640000       1.15690000
C        0.83380000      -0.43170000       1.23480000
H        0.59290000       2.10310000       0.02450000
H       -0.94360000       1.77680000      -0.79270000
H       -0.84460000       1.70360000       0.97300000
H       -0.87280000      -0.58610000      -0.07740000
H        0.70540000      -1.40600000      -1.55700000
H        0.38320000       0.20260000      -2.17120000
H        2.70470000       0.78780000      -1.86260000
H        4.24200000      -0.55450000      -0.57390000
H        2.85520000      -2.91620000      -0.20920000
H        3.13620000      -2.89440000       2.24840000
H        3.32900000      -1.08170000       2.24050000
H        0.85060000      -2.64490000       1.21570000
H        1.59670000       0.32820000       1.43820000
H        0.15180000      -0.40930000       2.09410000
