19
Properties=species:S:1:pos:R:3 gdb_42008=T pbc="F F F"
C       -0.00820000       1.36400000      -0.16580000
C        1.46940000       1.83330000      -0.07310000
C        2.12300000       0.69640000       0.72670000
N        3.52920000       0.38280000       0.42850000
C        3.76890000      -1.03640000       0.15100000
C        2.85840000      -1.88580000       1.02440000
O        1.48230000      -1.70560000       0.65380000
C        1.13950000      -0.42810000       0.41480000
N        0.00370000      -0.10030000      -0.04710000
H       -0.61340000       1.79160000       0.64540000
H       -0.48510000       1.66210000      -1.10450000
H        1.91220000       1.86810000      -1.07630000
H        1.58860000       2.81750000       0.38520000
H        2.03730000       0.91250000       1.80430000
H        3.85540000       0.95130000      -0.34310000
H        3.57820000      -1.31990000      -0.89820000
H        4.81460000      -1.28230000       0.37320000
H        3.06100000      -2.94960000       0.88910000
H        2.99480000      -1.63500000       2.08470000
