20
Properties=species:S:1:pos:R:3 gdb_103239=T pbc="F F F"
C        0.08080000       1.50200000      -0.28150000
C        0.05330000       0.07670000       0.28760000
C       -1.28690000      -0.60660000       0.08080000
O       -2.30320000      -0.00860000       0.87190000
C       -1.91610000      -1.15090000      -1.19770000
C       -1.05000000      -2.08310000      -2.08750000
N        0.33810000      -2.16300000      -1.56340000
C       -0.75410000      -2.95680000      -0.93560000
C       -1.62010000      -2.07130000       0.00070000
H        1.05690000       1.96650000      -0.11370000
H       -0.10720000       1.49670000      -1.36050000
H       -0.66490000       2.15440000       0.18910000
H        0.84170000      -0.51570000      -0.16870000
H        0.22690000       0.10760000       1.37050000
H       -2.42190000       0.89220000       0.55240000
H       -2.88860000      -0.79230000      -1.51080000
H       -1.26890000      -2.32870000      -3.11900000
H        0.84200000      -2.80550000      -2.17550000
H       -0.68730000      -4.03510000      -0.86880000
H       -2.33960000      -2.49180000       0.69130000
