20
Properties=species:S:1:pos:R:3 gdb_12887=T pbc="F F F"
C       -0.05080000       1.55140000      -0.02850000
C        0.04810000       0.04480000       0.04850000
C        1.35440000      -0.68330000      -0.18250000
O        2.51900000       0.10280000      -0.14770000
C        2.95370000       0.19010000       1.21320000
C        1.68440000       0.07760000       2.08100000
C        0.72440000      -0.71790000       1.18540000
C        0.06250000      -1.95100000       1.75510000
H        0.92230000       2.02400000       0.12200000
H       -0.40830000       1.85720000      -1.01740000
H       -0.75010000       1.95040000       0.71470000
H       -0.82160000      -0.47730000      -0.34720000
H        1.41550000      -1.54970000      -0.83610000
H        3.64840000      -0.63430000       1.43700000
H        3.49250000       1.13490000       1.33140000
H        1.88250000      -0.45670000       3.01480000
H        1.28840000       1.06300000       2.34530000
H       -0.65440000      -1.69160000       2.54330000
H       -0.48540000      -2.49990000       0.98240000
H        0.80050000      -2.63580000       2.18980000
