15
Properties=species:S:1:pos:R:3 gdb_2807=T pbc="F F F"
O       -0.00520000       1.31330000      -0.32940000
C        0.07470000      -0.07830000      -0.08150000
C       -1.30890000      -0.60690000       0.27060000
O       -2.23780000      -0.31170000      -0.81140000
C       -2.36680000      -1.71220000      -1.14520000
C       -1.56180000      -2.12080000       0.11130000
O       -0.38860000      -2.87660000      -0.06230000
H       -0.71750000       1.42130000      -0.97240000
H        0.47650000      -0.62470000      -0.94610000
H        0.76490000      -0.22390000       0.75540000
H       -1.65650000      -0.15260000       1.20550000
H       -3.41650000      -2.02250000      -1.19610000
H       -1.85810000      -1.96940000      -2.08300000
H       -2.19160000      -2.53380000       0.90810000
H       -0.61970000      -3.81000000      -0.07030000
