20
Properties=species:S:1:pos:R:3 gdb_64952=T pbc="F F F"
C        0.20210000       1.54010000      -0.13870000
C        0.06100000       0.03620000       0.00090000
C        1.31560000      -0.78390000       0.29060000
C        0.31150000      -0.58830000       1.37350000
C       -0.96390000      -0.68410000      -0.82020000
O       -1.07390000      -1.89950000      -0.78260000
C       -1.87110000       0.10650000      -1.71550000
C       -1.93350000      -0.34950000      -3.14510000
N       -3.05010000      -0.59190000      -2.24480000
H        1.03270000       1.89880000       0.47610000
H        0.40890000       1.83550000      -1.17300000
H       -0.69770000       2.07060000       0.19120000
H        1.36370000      -1.76150000      -0.17360000
H        2.25010000      -0.23560000       0.33690000
H        0.53670000       0.09910000       2.18160000
H       -0.31320000      -1.43400000       1.63490000
H       -2.01370000       1.15840000      -1.49890000
H       -2.10530000       0.39010000      -3.92210000
H       -1.29490000      -1.18440000      -3.42010000
H       -2.98440000      -1.55350000      -1.90600000
