19
Properties=species:S:1:pos:R:3 gdb_26207=T pbc="F F F"
C       -0.01010000       1.40380000       0.00090000
N       -0.02120000      -0.03840000      -0.17440000
C        1.19870000      -0.75190000       0.15950000
C       -1.22630000      -0.66750000      -0.06160000
N       -2.40900000      -0.12200000      -0.02250000
C       -3.28540000      -1.21030000       0.01680000
C       -4.76250000      -1.01600000       0.06120000
C       -2.57060000      -2.35500000       0.01270000
O       -1.22400000      -2.02070000      -0.03350000
H        0.85480000       1.82020000      -0.52410000
H       -0.92570000       1.82140000      -0.41700000
H        0.05100000       1.69480000       1.06060000
H        1.40880000      -0.74560000       1.24070000
H        1.12850000      -1.78700000      -0.17360000
H        2.03890000      -0.27530000      -0.35400000
H       -5.11010000      -0.46640000      -0.82030000
H       -5.28570000      -1.97500000       0.09800000
H       -5.05200000      -0.42980000       0.94010000
H       -2.79800000      -3.40540000       0.04650000
