17
Properties=species:S:1:pos:R:3 gdb_38125=T pbc="F F F"
C       -0.08590000       1.53180000       0.09410000
O        1.31240000       1.91220000      -0.00290000
C        2.16350000       0.73540000       0.20450000
C        1.21930000      -0.25700000       0.88900000
C        0.08750000       0.03640000      -0.09210000
O       -0.68070000      -1.01410000      -0.64480000
C        0.32020000      -0.35080000      -1.47990000
C        1.73800000      -0.69720000      -1.78970000
C        2.62500000       0.00660000      -1.06980000
H       -0.49270000       1.83260000       1.06830000
H       -0.64330000       2.02490000      -0.70590000
H        3.01730000       1.08190000       0.78890000
H        1.56850000      -1.28620000       0.87500000
H        0.95280000       0.03980000       1.90850000
H       -0.16850000       0.24560000      -2.25100000
H        2.01700000      -1.31610000      -2.63640000
H        3.68910000      -0.02270000      -1.28770000
