16
Properties=species:S:1:pos:R:3 gdb_17140=T pbc="F F F"
C        0.02160000      -1.14480000      -0.01090000
C       -0.01340000       0.05810000       0.02100000
C       -0.06010000       1.48790000       0.06650000
C       -0.75540000       2.41010000       1.09740000
C       -0.10470000       3.38510000       0.10090000
C        1.16310000       2.48190000      -0.08580000
C        1.04950000       2.50190000      -1.62130000
C       -0.40950000       2.46390000      -1.13040000
H        0.05270000      -2.20570000      -0.03960000
H       -1.84900000       2.37390000       1.11660000
H       -0.34880000       2.39120000       2.11320000
H       -0.11450000       4.47470000       0.09680000
H        2.05140000       2.47600000       0.54770000
H        1.37220000       3.41940000      -2.12300000
H        1.41300000       1.61800000      -2.15310000
H       -1.33750000       2.43700000      -1.70360000
