23
Properties=species:S:1:pos:R:3 gdb_114813=T pbc="F F F"
C        0.30310000       1.48490000       0.14000000
C        0.06820000      -0.02830000       0.06520000
C        0.54010000      -0.61000000      -1.25520000
O        1.97570000      -0.48600000      -1.45180000
C        2.09670000      -1.87120000      -1.83040000
C        2.52820000      -2.77310000      -0.65460000
C        1.02620000      -3.01060000      -0.30270000
C        0.59080000      -2.13810000      -1.52100000
C       -0.42000000      -2.71990000      -2.48320000
H        1.36440000       1.71140000       0.00450000
H       -0.25480000       2.01210000      -0.64180000
H       -0.01260000       1.88780000       1.10690000
H        0.59240000      -0.52010000       0.89160000
H       -1.00040000      -0.25380000       0.18210000
H        0.01450000      -0.09760000      -2.07820000
H        2.57460000      -1.99690000      -2.80700000
H        3.05250000      -3.68200000      -0.96260000
H        3.12940000      -2.25260000       0.09390000
H        0.71890000      -4.05400000      -0.41220000
H        0.69650000      -2.66880000       0.68080000
H       -1.41610000      -2.76640000      -2.02530000
H       -0.50050000      -2.11580000      -3.39360000
H       -0.14920000      -3.73960000      -2.77860000
