23
Properties=species:S:1:pos:R:3 gdb_118290=T pbc="F F F"
C        0.08720000       1.65230000      -0.04680000
C        0.00860000       0.12380000      -0.04420000
C        0.71660000      -0.51170000      -1.24540000
C        0.68510000      -2.03990000      -1.24670000
C        1.29460000      -2.63110000      -2.52000000
O        1.39320000      -2.46570000      -0.08090000
C        1.17120000      -3.79120000       0.31810000
C        1.77900000      -3.97690000       1.69880000
O        1.84060000      -5.03580000       2.26430000
H        1.12760000       1.99490000      -0.01930000
H       -0.37460000       2.07430000      -0.94660000
H       -0.42580000       2.07860000       0.82090000
H        0.45170000      -0.27240000       0.87520000
H       -1.04440000      -0.18900000      -0.03890000
H        0.25940000      -0.15720000      -2.17790000
H        1.76690000      -0.19190000      -1.27070000
H       -0.36270000      -2.37730000      -1.15840000
H        2.33780000      -2.31600000      -2.62350000
H        1.26580000      -3.72460000      -2.51510000
H        0.74090000      -2.29070000      -3.40040000
H        0.09400000      -4.02620000       0.38230000
H        1.62020000      -4.53230000      -0.36120000
H        2.15920000      -3.03230000       2.14680000
