13
Properties=species:S:1:pos:R:3 gdb_130259=T pbc="F F F"
N        0.07470000       1.36920000      -0.03690000
C       -0.00460000       0.01460000       0.02810000
N       -1.15830000      -0.56200000       0.09060000
O       -1.17350000      -1.97410000       0.22870000
C       -0.05880000      -2.73880000       0.29070000
O       -0.12850000      -3.92920000       0.41870000
N        1.14700000      -2.05890000       0.19100000
C        1.29800000      -0.69760000       0.03670000
N        2.37730000      -0.03560000      -0.10160000
H        0.96800000       1.73760000      -0.32590000
H       -0.76250000       1.87880000      -0.26600000
H        1.96220000      -2.65530000       0.22100000
H        3.21060000      -0.62390000      -0.09340000
