21
Properties=species:S:1:pos:R:3 gdb_75715=T pbc="F F F"
C       -0.48560000       1.45180000       0.00120000
C        0.01180000       0.01340000      -0.01240000
C        1.19120000      -0.38180000      -0.91620000
O        1.49390000      -0.10250000      -2.04230000
C        1.86730000      -1.20030000       0.18920000
C        2.94900000      -0.36610000       0.93550000
C        1.85160000       0.23360000       1.86140000
C        0.76280000      -0.66020000       1.18840000
C       -0.05370000      -1.55300000       2.09790000
H        0.31220000       2.15650000       0.25370000
H       -0.86210000       1.72640000      -0.98880000
H       -1.29850000       1.58710000       0.72220000
H       -0.81780000      -0.65640000      -0.28730000
H        2.07020000      -2.25330000      -0.01360000
H        3.66070000      -0.99780000       1.47130000
H        3.51340000       0.33380000       0.31470000
H        1.99810000       0.00560000       2.92000000
H        1.69650000       1.31150000       1.77260000
H       -0.75210000      -0.96370000       2.70500000
H       -0.64310000      -2.27810000       1.52510000
H        0.58670000      -2.11350000       2.78810000
