14
Properties=species:S:1:pos:R:3 gdb_26913=T pbc="F F F"
N        0.06510000       1.46420000      -0.05050000
C        0.00930000       0.04430000      -0.01260000
C       -1.13220000      -0.69270000      -0.10150000
O       -2.34810000      -0.15420000      -0.20460000
O       -1.13630000      -2.02160000      -0.14290000
C        0.07600000      -2.75550000       0.00360000
N       -0.09340000      -4.00730000       0.05040000
N        1.25150000      -2.04190000       0.05910000
C        1.19760000      -0.74240000       0.03740000
H       -0.78490000       1.85130000      -0.44400000
H        0.18060000       1.86590000       0.87510000
H       -2.98980000      -0.87410000      -0.28260000
H        0.82130000      -4.44610000       0.13810000
H        2.14630000      -0.20550000       0.06240000
