15
Properties=species:S:1:pos:R:3 gdb_4464=T pbc="F F F"
C        0.16490000       1.48940000      -0.03360000
C       -0.04290000       0.02310000      -0.02320000
C       -1.10040000      -0.81590000       0.11150000
N       -2.44940000      -0.54040000       0.33990000
N       -0.67710000      -2.14340000       0.07050000
C        0.60710000      -2.04690000      -0.09390000
N        1.50450000      -3.07230000      -0.27180000
O        1.09040000      -0.79830000      -0.16290000
H        0.84400000       1.81830000       0.76360000
H        0.57790000       1.85220000      -0.98400000
H       -0.79210000       1.99430000       0.12770000
H       -2.77400000       0.30130000      -0.11650000
H       -3.02400000      -1.32840000       0.07040000
H        1.15650000      -3.95710000       0.06690000
H        2.44190000      -2.86480000       0.04070000
