18
Properties=species:S:1:pos:R:3 gdb_93371=T pbc="F F F"
C       -0.02200000       1.57220000      -0.04070000
C        0.03540000       0.04200000       0.01500000
C        0.66070000      -0.54800000      -1.24600000
O        0.86200000      -1.96340000      -1.14510000
C        1.60970000      -2.42810000      -0.10380000
O        2.26880000      -3.41850000      -0.22790000
N        1.49250000      -1.74950000       1.13430000
C        2.25890000      -0.50850000       1.34010000
C        0.77310000      -0.47800000       1.23120000
H        0.98200000       2.00290000      -0.11800000
H       -0.60470000       1.91370000      -0.90240000
H       -0.49130000       1.97850000       0.86020000
H       -0.98870000      -0.34760000       0.07960000
H        0.00720000      -0.40790000      -2.10970000
H        1.61910000      -0.06300000      -1.47720000
H        2.73930000      -0.42130000       2.31000000
H        2.85240000      -0.13690000       0.50880000
H        0.22090000      -0.38990000       2.16550000
