21
Properties=species:S:1:pos:R:3 gdb_13820=T pbc="F F F"
C       -0.22280000       1.60940000       0.28940000
C        0.21620000       0.21250000      -0.14250000
N        0.80800000      -0.49790000       0.99430000
C       -0.08110000      -1.28040000       1.84580000
C        0.91630000      -1.95470000       0.96260000
C        0.49830000      -2.81960000      -0.22830000
C        0.89930000      -4.27970000       0.00020000
O       -0.88410000      -2.71670000      -0.56090000
H        0.61750000       2.16360000       0.71750000
H       -0.61540000       2.17150000      -0.56370000
H       -1.01110000       1.55440000       1.04780000
H       -0.62760000      -0.33170000      -0.58810000
H        0.99290000       0.29370000      -0.91330000
H        0.08570000      -1.20680000       2.91770000
H       -1.12700000      -1.34540000       1.55000000
H        1.83710000      -2.31010000       1.42540000
H        1.01370000      -2.45090000      -1.12440000
H        1.98290000      -4.38220000       0.11420000
H        0.43000000      -4.67270000       0.91070000
H        0.57820000      -4.89190000      -0.84640000
H       -1.38440000      -3.12040000       0.15740000
