14
Properties=species:S:1:pos:R:3 gdb_50069=T pbc="F F F"
O        0.16970000       0.36120000       1.08360000
C        0.39420000       0.95900000       0.06190000
C        1.53080000       1.92890000      -0.08700000
C        1.84670000       2.76560000       1.14670000
N        2.71550000       1.71780000       0.71410000
C        3.08170000       0.55150000       1.35380000
O        3.10170000      -0.54250000       0.83940000
C        3.60660000       0.73380000       2.78290000
O        3.56910000       1.76380000       3.40010000
H       -0.24850000       0.84660000      -0.83540000
H        1.68960000       2.34870000      -1.07630000
H        2.21360000       3.77890000       1.01430000
H        1.22310000       2.58410000       2.01670000
H        4.00830000      -0.21540000       3.19090000
