25
Properties=species:S:1:pos:R:3 gdb_102652=T pbc="F F F"
C       -0.46640000       1.11870000       0.39370000
C       -0.27420000      -0.34780000       0.00210000
C        0.57290000      -0.54050000      -1.26050000
C        0.77610000      -2.02530000      -1.59190000
C        1.61180000      -2.26530000      -2.83060000
C        3.11970000      -2.27260000      -2.74950000
C        2.36730000      -3.55650000      -3.00550000
O       -0.08270000       0.09810000      -2.36110000
C        0.66580000       1.10390000      -3.00530000
H        0.49210000       1.60280000       0.61400000
H       -0.94710000       1.67210000      -0.41770000
H       -1.09580000       1.21080000       1.28410000
H        0.19700000      -0.89900000       0.82560000
H       -1.25200000      -0.81530000      -0.16970000
H        1.55780000      -0.07310000      -1.10680000
H        1.24540000      -2.51770000      -0.73010000
H       -0.21250000      -2.48610000      -1.71840000
H        1.18590000      -1.84030000      -3.73430000
H        3.68900000      -1.83770000      -3.56390000
H        3.57600000      -2.14190000      -1.77300000
H        2.32090000      -4.28360000      -2.20080000
H        2.42060000      -3.99630000      -3.99550000
H        0.91460000       1.93420000      -2.32750000
H        1.60220000       0.71570000      -3.43220000
H        0.04690000       1.49390000      -3.81860000
