15
Properties=species:S:1:pos:R:3 gdb_3553=T pbc="F F F"
C        0.03520000       1.57200000       0.03650000
C        0.07620000       0.05330000      -0.01850000
C        0.78780000      -0.67210000      -1.16750000
C        2.25140000      -0.79070000      -0.70500000
O        2.37880000      -0.12080000       0.54950000
C        1.08920000      -0.70780000       0.89090000
C        1.25300000      -1.79130000      -0.23920000
H        1.04760000       1.98060000      -0.00500000
H       -0.53850000       1.97900000      -0.80330000
H       -0.43870000       1.92080000       0.96110000
H       -0.91800000      -0.38550000       0.11940000
H        0.49750000      -0.74250000      -2.20840000
H        3.11140000      -0.85730000      -1.35770000
H        0.94730000      -0.84600000       1.96090000
H        1.18400000      -2.86870000      -0.28190000
