14
Properties=species:S:1:pos:R:3 gdb_43508=T pbc="F F F"
N       -0.05680000       1.28330000       0.10660000
C       -0.01210000       0.01920000       0.01120000
C       -1.24360000      -0.86130000       0.01580000
C       -0.73270000      -2.28720000      -0.05400000
O       -1.35570000      -3.30260000      -0.13810000
C        0.83560000      -2.22690000      -0.01600000
N        1.09570000      -0.80970000      -0.14410000
C        1.35600000      -2.81500000       1.22610000
N        1.78370000      -3.24820000       2.20840000
H        0.87470000       1.70270000       0.08780000
H       -1.83230000      -0.71490000       0.92680000
H       -1.90480000      -0.64600000      -0.82830000
H        1.22020000      -2.80890000      -0.86290000
H        2.02400000      -0.44650000       0.00920000
