13
Properties=species:S:1:pos:R:3 gdb_27471=T pbc="F F F"
O       -0.04060000       1.27130000      -0.40150000
C        0.04220000      -0.02870000      -0.07050000
N        1.21370000      -0.56320000       0.00650000
C        1.44990000      -1.88480000       0.32970000
O        2.34710000      -2.25210000       1.05390000
C        0.59360000      -2.90000000      -0.37790000
N       -0.68470000      -2.94330000      -0.37250000
C       -1.49560000      -1.95440000       0.13710000
C       -1.24500000      -0.62600000       0.21110000
H        0.86890000       1.58860000      -0.50650000
H        1.13190000      -3.70580000      -0.88030000
H       -2.49240000      -2.30600000       0.39080000
H       -2.05790000       0.05640000       0.43340000
