22
Properties=species:S:1:pos:R:3 gdb_116709=T pbc="F F F"
C       -0.12430000       1.62950000      -0.53330000
C       -0.05040000       0.31420000       0.25060000
C       -1.35650000      -0.45180000       0.22640000
C       -1.70880000      -1.34550000      -0.93540000
C       -1.39970000      -1.95670000       0.41630000
N       -0.17160000      -2.65660000       0.55320000
C       -0.14400000      -3.67190000       1.29670000
O        1.00000000      -4.36760000       1.46450000
C        0.90460000      -5.50610000       2.30960000
H        0.82860000       2.16710000      -0.49510000
H       -0.36650000       1.44740000      -1.58570000
H       -0.89670000       2.29290000      -0.12770000
H        0.74380000      -0.32220000      -0.15050000
H        0.22630000       0.52340000       1.29240000
H       -2.19360000       0.07780000       0.67710000
H       -2.73180000      -1.38050000      -1.29370000
H       -0.95240000      -1.48770000      -1.69990000
H       -2.25080000      -2.34710000       0.98060000
H       -1.00800000      -4.06880000       1.85200000
H        1.90330000      -5.94220000       2.35220000
H        0.59100000      -5.23060000       3.32430000
H        0.20620000      -6.25000000       1.90650000
