15
Properties=species:S:1:pos:R:3 gdb_15739=T pbc="F F F"
N        0.01330000       1.22340000       0.63690000
C       -0.01950000       0.03940000       0.17750000
N       -1.20820000      -0.53560000      -0.29710000
C       -2.45930000       0.03910000      -0.47370000
O       -2.77400000       1.17500000      -0.24950000
C        1.12700000      -0.92960000       0.06280000
C        2.25280000      -0.89960000       1.02040000
N        1.27410000      -2.00040000       1.08100000
H        0.97080000       1.46260000       0.89330000
H       -1.14620000      -1.51010000      -0.55250000
H       -3.16290000      -0.72180000      -0.87200000
H        1.31670000      -1.28520000      -0.94910000
H        3.24520000      -1.18490000       0.68540000
H        2.23570000      -0.15370000       1.81010000
H        0.62870000      -1.82080000       1.84860000
