18
Properties=species:S:1:pos:R:3 gdb_87292=T pbc="F F F"
O       -0.47510000       1.40740000      -0.34520000
C       -0.32700000       0.04550000      -0.27170000
C       -0.15160000      -0.68930000       0.99580000
C       -1.49290000      -0.87490000       0.25670000
C       -2.62380000      -0.12200000       0.82710000
O       -2.52150000       0.96300000       1.37480000
C       -1.79540000      -2.20300000      -0.37830000
C       -2.83170000      -2.32170000      -1.44070000
N       -1.41320000      -2.52580000      -1.76630000
H       -1.04900000       1.67710000       0.39380000
H        0.18460000      -0.33580000      -1.14990000
H        0.49640000      -1.55970000       1.00780000
H       -0.19980000      -0.12110000       1.91930000
H       -3.61910000      -0.59440000       0.70610000
H       -1.66730000      -3.05640000       0.28600000
H       -3.45400000      -3.21000000      -1.49830000
H       -3.31180000      -1.40900000      -1.78480000
H       -1.05930000      -1.69170000      -2.22890000
