17
Properties=species:S:1:pos:R:3 gdb_31633=T pbc="F F F"
C        0.14910000       1.34560000       0.05850000
O       -0.50600000       0.20540000      -0.51710000
C        0.25060000      -0.54250000      -1.31750000
C        0.50680000      -1.85360000      -1.34480000
N        1.27180000      -2.09200000      -2.49850000
C        1.81250000      -3.35810000      -2.93290000
C        1.50770000      -0.89860000      -3.14060000
N        2.19470000      -0.72440000      -4.19430000
O        0.84820000       0.07650000      -2.40690000
H        1.00430000       1.02890000       0.66660000
H        0.48700000       2.03530000      -0.72000000
H       -0.59460000       1.83380000       0.68880000
H        0.20440000      -2.63780000      -0.67470000
H        1.01730000      -4.10240000      -3.05060000
H        2.29560000      -3.19190000      -3.89620000
H        2.55500000      -3.74360000      -2.22350000
H        2.19620000       0.25250000      -4.47060000
