19
Properties=species:S:1:pos:R:3 gdb_54128=T pbc="F F F"
C       -0.19030000       1.62690000      -0.10720000
C       -0.07400000       0.12700000       0.10410000
O       -0.07610000      -0.34920000       1.21690000
C        0.09460000      -0.74930000      -1.13760000
C       -0.83420000      -0.36670000      -2.29250000
C        1.60940000      -0.83470000      -1.58360000
C        1.46020000      -2.36610000      -1.54370000
O        2.11710000      -3.26190000      -1.98650000
C        0.11080000      -2.27980000      -0.83260000
H        0.55150000       1.98970000      -0.82590000
H       -1.17740000       1.87080000      -0.51560000
H       -0.06770000       2.13580000       0.84930000
H       -0.66870000       0.66030000      -2.63030000
H       -0.66290000      -1.02600000      -3.14990000
H       -1.88630000      -0.46680000      -2.00470000
H        1.87450000      -0.39500000      -2.54880000
H        2.31240000      -0.47810000      -0.82330000
H        0.20190000      -2.46250000       0.24300000
H       -0.69960000      -2.89130000      -1.23700000
