19
Properties=species:S:1:pos:R:3 gdb_85153=T pbc="F F F"
C       -0.07960000       1.58200000       0.04740000
C        0.00700000       0.06500000       0.03420000
C        1.06560000      -0.58560000      -0.90650000
C        1.71400000      -1.14810000       0.36890000
O        2.65450000      -1.84600000       0.63700000
N        0.74960000      -0.53480000       1.16720000
C        0.44010000      -0.56420000       2.52220000
C        1.43920000      -1.29030000       3.38930000
N       -0.63560000       0.01630000       2.88990000
H        0.91660000       2.02900000       0.13250000
H       -0.53760000       1.93730000      -0.88140000
H       -0.68660000       1.91800000       0.89030000
H       -0.98910000      -0.37840000      -0.05530000
H        0.69450000      -1.35190000      -1.58940000
H        1.69600000       0.11810000      -1.45460000
H        2.41960000      -0.80790000       3.33480000
H        1.09660000      -1.29560000       4.42590000
H        1.58400000      -2.31710000       3.04370000
H       -0.75490000      -0.07040000       3.89800000
