16
Properties=species:S:1:pos:R:3 gdb_51216=T pbc="F F F"
O        0.05950000       0.01660000      -0.08800000
C        0.05870000       1.20640000      -0.16900000
O        1.08490000       1.96670000       0.27880000
C        0.95380000       3.36520000       0.18210000
C        0.30050000       4.35030000       1.13640000
N        0.89890000       5.27280000       0.07490000
C        2.13150000       4.33580000      -0.06190000
C        1.99310000       4.30920000      -1.58790000
C        0.56140000       4.25540000      -1.04190000
H       -0.75550000       1.80540000      -0.61620000
H       -0.79180000       4.38890000       1.18200000
H        0.74410000       4.48040000       2.12710000
H        3.00630000       4.48200000       0.57180000
H        2.27020000       5.22680000      -2.11090000
H        2.36180000       3.41860000      -2.09980000
H       -0.39820000       4.31060000      -1.55740000
