18
Properties=species:S:1:pos:R:3 gdb_1175=T pbc="F F F"
C        0.12630000       1.55870000       0.00920000
C       -0.01270000       0.03360000       0.00230000
C       -1.47390000      -0.50730000       0.01340000
C       -2.23220000      -0.08070000       1.29050000
C       -2.25650000      -0.06710000      -1.24430000
C       -1.38600000      -1.97870000       0.00460000
N       -1.31210000      -3.13250000      -0.00190000
H        1.18600000       1.83090000       0.00090000
H       -0.33450000       2.01970000      -0.86920000
H       -0.31810000       2.01010000       0.90090000
H        0.49130000      -0.37380000      -0.88130000
H        0.50810000      -0.38330000       0.87160000
H       -2.36420000       1.00420000       1.30650000
H       -3.22230000      -0.54290000       1.32450000
H       -1.68670000      -0.37780000       2.19060000
H       -1.72840000      -0.35430000      -2.15780000
H       -3.24700000      -0.52910000      -1.26430000
H       -2.38890000       1.01790000      -1.24600000
