16
Properties=species:S:1:pos:R:3 gdb_42905=T pbc="F F F"
O       -0.16080000       0.05290000      -0.08760000
C       -0.10660000       1.23790000       0.00890000
N       -1.18410000       2.21810000      -0.02760000
C       -1.01490000       3.02130000       1.22360000
C       -0.09930000       3.30300000       0.11120000
C        1.02280000       2.27650000       0.04900000
C        2.24810000       2.22070000       0.98160000
O        3.16140000       2.25300000      -0.13090000
C        2.08000000       2.27150000      -1.07980000
H       -1.84950000       3.69380000       1.39100000
H       -0.65170000       2.52020000       2.11780000
H       -0.16020000       4.19800000      -0.49620000
H        2.36490000       3.08620000       1.64560000
H        2.34060000       1.29550000       1.56310000
H        2.06930000       1.37770000      -1.71420000
H        2.09080000       3.16990000      -1.70930000
