19
Properties=species:S:1:pos:R:3 gdb_67052=T pbc="F F F"
C       -0.10840000       1.51700000      -0.19360000
C       -0.08420000       0.00370000      -0.01940000
C       -1.16570000      -0.69600000       0.88480000
C       -0.26290000      -1.94370000       0.87950000
C        0.70940000      -0.73580000       1.08930000
C       -0.31540000      -0.20300000       2.14130000
C        2.00840000      -0.76560000       0.27190000
C        1.02620000      -0.60770000      -0.97420000
O        1.14970000      -0.80900000      -2.14100000
H        0.89720000       1.94150000      -0.30150000
H       -0.65680000       1.76440000      -1.10900000
H       -0.60360000       2.02860000       0.63610000
H       -2.25540000      -0.66140000       0.79920000
H       -0.35470000      -2.63200000       1.72340000
H       -0.18590000      -2.48570000      -0.06740000
H       -0.30510000       0.86500000       2.35870000
H       -0.44540000      -0.78820000       3.05570000
H        2.63090000       0.13070000       0.36240000
H        2.64270000      -1.65420000       0.30430000
