16
Properties=species:S:1:pos:R:3 gdb_19886=T pbc="F F F"
C       -0.29270000      -1.29530000      -0.21650000
C       -0.05800000      -0.12740000      -0.04260000
C        0.09900000       1.29740000       0.08270000
C        0.50360000       2.14390000       1.27930000
C        1.73320000       1.67000000       2.10120000
C        2.38560000       0.40860000       1.60550000
C        2.58110000       1.68750000       0.83840000
C        1.34880000       2.16150000       0.02060000
H       -0.46790000      -2.33410000      -0.34870000
H       -0.70300000       1.81160000      -0.44870000
H       -0.16980000       2.90840000       1.64680000
H        1.96250000       2.09800000       3.06820000
H        3.25710000       0.11870000       2.18660000
H        1.81950000      -0.42390000       1.21390000
H        3.55730000       2.13110000       0.69300000
H        1.42400000       2.94150000      -0.72700000
