16
Properties=species:S:1:pos:R:3 gdb_114936=T pbc="F F F"
O       -0.16910000       1.39770000       0.26320000
C       -0.03140000      -0.00410000       0.08620000
C       -1.43580000      -0.57000000      -0.11480000
C       -1.48020000      -2.12220000      -0.06220000
N       -1.93880000      -2.47450000       1.29490000
C       -2.35270000      -1.37580000       1.80620000
N       -2.30880000      -0.23300000       1.02180000
C       -2.90020000      -1.29080000       3.13440000
N       -3.32950000      -1.18090000       4.20150000
H        0.68470000       1.76490000       0.50930000
H        0.58540000      -0.24690000      -0.79290000
H        0.43080000      -0.47780000       0.96640000
H       -1.85460000      -0.16540000      -1.04010000
H       -2.19140000      -2.53000000      -0.79010000
H       -0.50800000      -2.58310000      -0.26510000
H       -2.14810000       0.66360000       1.46240000
