22
Properties=species:S:1:pos:R:3 gdb_102620=T pbc="F F F"
C       -0.39060000       1.58760000      -0.10400000
C       -0.12830000       0.08090000      -0.07980000
C       -1.40830000      -0.76640000       0.04510000
C       -1.10600000      -2.26490000       0.01400000
O       -0.37190000      -2.57870000       1.19490000
N       -2.15470000      -0.46450000       1.25940000
C       -3.36170000       0.17140000       1.25580000
C       -4.01990000       0.31470000       2.62090000
O       -3.88400000       0.60230000       0.24170000
H        0.54370000       2.14330000      -0.22950000
H       -1.06280000       1.86180000      -0.92330000
H       -0.85650000       1.92170000       0.82750000
H        0.38220000      -0.22070000      -1.00360000
H        0.54850000      -0.17600000       0.74300000
H       -2.08110000      -0.52830000      -0.78430000
H       -2.05060000      -2.82650000      -0.02150000
H       -0.52740000      -2.50680000      -0.89010000
H       -0.24700000      -3.53070000       1.23440000
H       -1.79990000      -0.86830000       2.11140000
H       -3.42020000      -0.08250000       3.44400000
H       -4.22060000       1.37340000       2.80380000
H       -4.98460000      -0.19990000       2.60170000
