19
Properties=species:S:1:pos:R:3 gdb_89877=T pbc="F F F"
C        0.59170000       1.25030000      -0.31590000
C       -0.09860000      -0.06780000       0.01690000
C        0.36980000      -1.27900000      -0.85570000
C        1.17550000      -1.76770000       0.35270000
C        0.46350000      -0.78810000       1.28710000
O        1.46120000      -3.11000000       0.65540000
C        2.58060000      -2.23060000       0.43990000
C        3.35830000      -2.48930000      -0.80490000
O        4.50590000      -2.15530000      -0.95940000
H        1.68130000       1.13330000      -0.33900000
H        0.27700000       1.62390000      -1.29610000
H        0.35530000       2.01800000       0.42840000
H       -1.18200000       0.07050000       0.03250000
H       -0.43990000      -1.97420000      -1.09540000
H        0.91460000      -1.04190000      -1.77290000
H        1.08740000      -0.19250000       1.95860000
H       -0.30910000      -1.29290000       1.87390000
H        3.16720000      -1.97600000       1.32140000
H        2.77880000      -3.02140000      -1.59120000
