18
Properties=species:S:1:pos:R:3 gdb_19757=T pbc="F F F"
O        0.14140000       1.40460000       0.16050000
C        0.04810000       0.00010000       0.01440000
C       -1.36150000      -0.53530000      -0.20960000
C       -1.57220000      -0.58920000      -1.71670000
C       -0.28400000      -0.09410000      -2.37170000
C        0.68550000      -0.59190000      -1.27570000
C        0.28480000      -2.07880000      -1.14670000
C       -1.21420000      -1.84820000      -0.95080000
H       -0.48480000       1.80800000      -0.44900000
H        0.51950000      -0.41690000       0.91080000
H       -2.16910000      -0.34630000       0.48550000
H       -2.55000000      -0.45180000      -2.15900000
H       -0.09330000      -0.56280000      -3.34260000
H       -0.24920000       0.99220000      -2.50960000
H        1.74260000      -0.37280000      -1.41780000
H        0.51490000      -2.66200000      -2.04460000
H        0.75640000      -2.56870000      -0.28800000
H       -1.92090000      -2.65740000      -0.82100000
