19
Properties=species:S:1:pos:R:3 gdb_66634=T pbc="F F F"
C       -0.00730000       1.51600000      -0.03130000
C       -0.00950000       0.01750000      -0.00440000
C        0.49980000      -1.02440000      -0.97320000
C        1.14160000      -0.88060000       0.40380000
C        0.52990000      -1.98380000       1.31740000
C        0.06210000      -3.05080000       0.30490000
C       -0.62030000      -2.01710000      -0.60250000
C       -1.13460000      -0.93500000       0.45770000
O       -0.73430000      -1.42830000       1.72990000
H        0.94600000       1.90280000      -0.40680000
H       -0.80030000       1.90770000      -0.67860000
H       -0.16090000       1.92660000       0.97310000
H        1.02300000      -0.91520000      -1.91510000
H        2.13910000      -0.48290000       0.53290000
H        1.10720000      -2.29550000       2.18560000
H        0.88510000      -3.56600000      -0.19910000
H       -0.61480000      -3.77410000       0.76620000
H       -1.31170000      -2.35410000      -1.37140000
H       -2.17380000      -0.61270000       0.46450000
