19
Properties=species:S:1:pos:R:3 gdb_76319=T pbc="F F F"
C       -0.67410000       1.54120000       0.04460000
C       -0.11310000       0.12730000      -0.03400000
C       -1.18510000      -0.94050000       0.23080000
C        0.77300000      -0.23970000      -1.29150000
O        1.34730000       0.88690000      -1.89560000
C        1.81750000      -0.93930000      -0.34560000
O        3.16810000      -0.65830000      -0.61050000
C        1.16980000      -0.12160000       0.77710000
O        1.67030000       0.38810000       1.74200000
H        0.07380000       2.27130000      -0.26820000
H       -1.54920000       1.64570000      -0.60520000
H       -0.98000000       1.76950000       1.07020000
H       -1.97340000      -0.86870000      -0.52610000
H       -0.78350000      -1.95830000       0.19840000
H       -1.64220000      -0.79210000       1.21380000
H        0.28160000      -0.88780000      -2.02690000
H        2.30380000       0.73030000      -1.89330000
H        1.64790000      -2.01860000      -0.26610000
H        3.50060000      -0.15340000       0.14430000
