21
Properties=species:S:1:pos:R:3 gdb_99105=T pbc="F F F"
C       -0.37920000       1.50280000      -0.09630000
C       -0.60460000       0.03810000       0.26530000
C       -1.35490000      -0.74750000      -0.79460000
O       -1.68350000      -0.26820000      -1.85700000
C       -1.72820000      -2.18610000      -0.42650000
C       -3.11920000      -2.22950000       0.20470000
C       -4.28140000      -1.92100000      -0.71280000
C       -3.33040000      -3.04380000       1.41100000
O       -3.18650000      -1.62360000       1.50910000
H        0.17130000       2.01750000       0.69610000
H        0.18640000       1.59350000      -1.02730000
H       -1.33190000       2.01790000      -0.24490000
H        0.34910000      -0.48030000       0.44340000
H       -1.16650000      -0.07690000       1.20230000
H       -1.72650000      -2.78600000      -1.34140000
H       -1.00000000      -2.60140000       0.27600000
H       -4.38080000      -2.69860000      -1.47750000
H       -5.21060000      -1.87040000      -0.14040000
H       -4.12980000      -0.96910000      -1.22840000
H       -4.32590000      -3.42530000       1.63510000
H       -2.50850000      -3.62840000       1.82270000
