16
Properties=species:S:1:pos:R:3 gdb_55829=T pbc="F F F"
N       -0.23810000       1.17920000       0.14740000
C       -0.14360000      -0.15160000      -0.14510000
O        0.59540000      -0.64540000      -0.95970000
O       -0.98150000      -0.85690000       0.67260000
C       -1.01910000      -2.24050000       0.42320000
C       -2.26800000      -2.99720000       0.76060000
C       -3.47800000      -2.17660000       0.32300000
O       -2.93510000      -1.98710000      -1.01100000
C       -1.82060000      -2.81300000      -0.69500000
H        0.17950000       1.80440000      -0.52050000
H       -1.04580000       1.50440000       0.65120000
H       -0.08680000      -2.75690000       0.63150000
H       -2.28670000      -3.85690000       1.41680000
H       -4.40140000      -2.76260000       0.27590000
H       -3.65610000      -1.22830000       0.83990000
H       -1.44290000      -3.47920000      -1.46170000
