13
Properties=species:S:1:pos:R:3 gdb_7627=T pbc="F F F"
N        0.46540000      -0.05820000       0.84960000
C       -0.18280000       0.58090000      -0.15380000
O        0.13300000       1.65610000      -0.62270000
C       -1.38430000      -0.16680000      -0.71850000
C       -1.16960000      -0.87540000      -2.07050000
C       -1.45450000      -2.14320000      -1.26760000
O       -1.52680000      -3.31260000      -1.44520000
O       -1.64520000      -1.46280000      -0.07730000
H        1.24970000       0.39640000       1.28730000
H        0.10860000      -0.92130000       1.22370000
H       -2.26640000       0.47300000      -0.66230000
H       -1.90330000      -0.66210000      -2.84850000
H       -0.16360000      -0.81480000      -2.48770000
