15
Properties=species:S:1:pos:R:3 gdb_25613=T pbc="F F F"
O        0.36390000       0.14740000      -0.39650000
C        0.40080000       1.34050000      -0.37440000
O        0.80820000       2.03570000       0.70540000
C        0.89580000       3.46040000       0.57170000
C        2.29000000       3.87940000       0.22830000
C        3.42700000       3.11470000       0.19790000
N        4.43160000       3.98590000      -0.16350000
C        3.86580000       5.21310000      -0.33020000
N        2.57310000       5.18530000      -0.10210000
H        0.09820000       1.99420000      -1.21580000
H        0.18920000       3.82200000      -0.18670000
H        0.57880000       3.87270000       1.53430000
H        3.60820000       2.07280000       0.39720000
H        5.40210000       3.75140000      -0.28830000
H        4.44020000       6.08040000      -0.61940000
