21
Properties=species:S:1:pos:R:3 gdb_101567=T pbc="F F F"
C       -0.32150000       1.48240000       0.53120000
C       -0.20900000      -0.01760000       0.78530000
C        1.21960000      -0.50930000       0.93280000
O        2.17470000       0.23020000       0.86840000
C        1.41550000      -1.99940000       1.21900000
C        1.63550000      -2.24320000       2.72000000
O        0.47630000      -1.91030000       3.49560000
C        2.05310000      -3.68000000       3.03840000
O        2.21030000      -3.86380000       4.42660000
H        0.19910000       1.76230000      -0.38830000
H       -1.36880000       1.78390000       0.44190000
H        0.13450000       2.04920000       1.34680000
H       -0.73280000      -0.31220000       1.70560000
H       -0.68550000      -0.59880000      -0.01720000
H        0.56020000      -2.59260000       0.87140000
H        2.30660000      -2.32770000       0.67460000
H        2.41290000      -1.56250000       3.08240000
H       -0.24960000      -2.46950000       3.19100000
H        1.29950000      -4.37420000       2.61860000
H        3.01120000      -3.91290000       2.56160000
H        1.48790000      -3.37220000       4.83870000
