18
Properties=species:S:1:pos:R:3 gdb_18370=T pbc="F F F"
O        0.02350000       1.35290000      -0.11480000
C        0.05240000      -0.04660000       0.04720000
C        0.57540000      -0.53400000       1.41890000
C       -0.01560000      -1.94720000       1.57340000
C       -1.41150000      -1.85560000       0.93250000
C       -2.44500000      -0.98560000       1.67980000
O       -2.28660000       0.10670000       0.74140000
C       -1.35080000      -0.66580000      -0.05680000
H       -0.75130000       1.64980000       0.38270000
H        0.68490000      -0.44480000      -0.75610000
H        1.66540000      -0.50790000       1.48500000
H        0.18750000       0.13640000       2.19490000
H        0.59050000      -2.67430000       1.02000000
H       -0.05190000      -2.28770000       2.61310000
H       -1.79180000      -2.80910000       0.56560000
H       -3.47280000      -1.36700000       1.67200000
H       -2.17980000      -0.69280000       2.70350000
H       -1.71090000      -0.78760000      -1.08260000
