16
Properties=species:S:1:pos:R:3 gdb_26783=T pbc="F F F"
C       -0.02050000       1.50060000       0.12680000
C        0.01670000       0.01770000      -0.01250000
C        0.05190000      -0.77050000      -1.15000000
O        0.05850000      -0.24610000      -2.41240000
C        0.07780000      -2.12930000      -0.76260000
C        0.05780000      -2.15630000       0.62740000
N        0.02080000      -0.84720000       1.05560000
C        0.06980000      -3.23570000       1.52800000
C        0.07950000      -4.15070000       2.31430000
H        0.84290000       1.88850000       0.68210000
H       -0.00800000       1.95330000      -0.86680000
H       -0.92540000       1.84840000       0.64130000
H        0.08570000      -0.96960000      -3.04430000
H        0.10760000      -2.99640000      -1.40440000
H        0.00020000      -0.57470000       2.02300000
H        0.08840000      -4.96290000       2.99760000
