19
Properties=species:S:1:pos:R:3 gdb_97612=T pbc="F F F"
C       -0.32260000       1.56700000      -0.13640000
C       -0.27290000       0.08440000       0.27580000
C       -1.56520000      -0.58450000       0.17410000
C       -2.64230000      -1.11710000       0.08680000
C       -3.94500000      -1.76950000      -0.01080000
C       -3.84390000      -3.28630000      -0.15700000
O       -4.73680000      -1.52980000       1.18350000
C       -5.29480000      -0.31100000       1.30670000
O       -5.94310000       0.00650000       2.25840000
H        0.66820000       2.02030000      -0.04100000
H       -0.65140000       1.67190000      -1.17380000
H       -1.01850000       2.12310000       0.49730000
H        0.45650000      -0.44870000      -0.34730000
H        0.09310000      -0.00080000       1.30670000
H       -4.49520000      -1.35950000      -0.86910000
H       -3.32850000      -3.71240000       0.70650000
H       -4.84450000      -3.72030000      -0.22360000
H       -3.28230000      -3.53570000      -1.06040000
H       -5.09710000       0.34760000       0.43910000
