14
Properties=species:S:1:pos:R:3 gdb_43862=T pbc="F F F"
O        0.10280000       0.07230000      -0.62160000
C        0.04180000       1.16260000      -0.14150000
C       -1.12190000       2.05530000       0.34290000
C       -0.05330000       3.03660000       0.84430000
C        1.10490000       2.20950000       0.26630000
O       -0.15680000       4.43960000       0.72750000
C       -0.06720000       3.88580000       2.04860000
C       -1.25620000       3.96980000       2.86820000
N       -2.19910000       4.00960000       3.53530000
H       -1.73100000       2.45550000      -0.47400000
H       -1.78390000       1.61340000       1.09250000
H        1.87370000       1.85970000       0.96010000
H        1.58970000       2.68650000      -0.59190000
H        0.86410000       4.08890000       2.57360000
