16
Properties=species:S:1:pos:R:3 gdb_19072=T pbc="F F F"
C       -0.08410000       1.56050000       0.06660000
C        1.45680000       1.46970000       0.00300000
C        2.09460000       1.26690000       1.38700000
C        1.41040000       0.11550000       2.11280000
O        0.04880000       0.30150000       2.52330000
C        0.31070000      -0.55290000       1.40140000
C        0.04550000       0.02740000       0.01170000
O        1.34200000       0.16850000      -0.64850000
H       -0.55080000       2.00680000       0.94250000
H       -0.50230000       1.95840000      -0.85870000
H        2.00920000       2.18760000      -0.60860000
H        3.15180000       1.01100000       1.25440000
H        2.04960000       2.18790000       1.98070000
H        2.01160000      -0.44430000       2.82700000
H        0.09620000      -1.60630000       1.56820000
H       -0.65660000      -0.56150000      -0.58210000
