17
Properties=species:S:1:pos:R:3 gdb_65606=T pbc="F F F"
O        0.03370000       1.59280000      -0.03220000
C       -0.00190000       0.19240000       0.04100000
C        0.60520000      -0.32400000       1.38850000
C       -0.58790000      -0.56780000       2.28810000
O       -1.50340000       0.53060000       2.33360000
C       -1.81570000      -0.57860000       1.48550000
C       -1.47330000      -0.34210000       0.02990000
C        0.77000000      -0.38620000      -1.13210000
O        1.30500000       0.30890000      -1.95950000
H        0.55220000       1.80050000      -0.82640000
H        1.15510000      -1.26520000       1.25500000
H        1.29710000       0.42650000       1.77680000
H       -0.47660000      -1.12820000       3.21330000
H       -2.70080000      -1.14770000       1.75950000
H       -2.11560000       0.39700000      -0.45380000
H       -1.56030000      -1.28870000      -0.52020000
H        0.81390000      -1.49430000      -1.18450000
