18
Properties=species:S:1:pos:R:3 gdb_11895=T pbc="F F F"
C        0.00890000       1.50190000       0.02550000
C        0.01220000       0.00740000      -0.01030000
C       -0.18810000      -0.78030000      -1.07040000
C       -0.12350000      -2.21860000      -0.71490000
C       -0.88040000      -3.27230000      -1.40970000
O        0.52360000      -3.12580000      -1.62670000
C        0.27900000      -2.27750000       0.76410000
C        0.23620000      -0.80630000       1.24980000
H        0.96690000       1.88700000       0.39780000
H       -0.17180000       1.93260000      -0.96270000
H       -0.76220000       1.87890000       0.70950000
H       -0.38140000      -0.44600000      -2.08350000
H       -1.18110000      -4.16530000      -0.86070000
H       -1.51650000      -3.02040000      -2.25880000
H       -0.37620000      -2.92980000       1.34670000
H        1.28980000      -2.68960000       0.82950000
H        1.15550000      -0.50410000       1.76700000
H       -0.57960000      -0.63650000       1.96530000
