16
Properties=species:S:1:pos:R:3 gdb_45694=T pbc="F F F"
O       -0.05290000      -0.04910000       0.33650000
C       -0.00260000       1.11810000       0.03830000
C       -1.30500000       1.89910000      -0.26560000
N       -1.20530000       3.35090000      -0.44600000
C       -0.08340000       3.69260000      -0.88840000
O        0.45440000       4.94340000      -1.03230000
C        1.80460000       4.36190000      -1.09440000
C        1.19480000       2.93930000      -1.13790000
C        1.33140000       1.88050000      -0.04750000
H       -1.75500000       1.42620000      -1.14990000
H       -1.99530000       1.69070000       0.55820000
H        2.33820000       4.69930000      -1.98450000
H        2.36480000       4.60830000      -0.18850000
H        1.25170000       2.49720000      -2.13650000
H        1.48880000       2.36570000       0.92560000
H        2.13800000       1.16060000      -0.19790000
