21
Properties=species:S:1:pos:R:3 gdb_39787=T pbc="F F F"
C       -0.01350000       1.51500000       0.01060000
C        1.31770000       0.75930000      -0.00670000
C        0.02570000       0.02650000       0.00200000
C       -0.57730000      -1.03250000       0.95140000
C       -1.82870000      -1.02240000       0.01450000
C       -0.59600000      -1.02200000      -0.94690000
C        0.01740000      -2.08580000      -0.00950000
C        1.30360000      -2.82850000      -0.02630000
C       -0.03350000      -3.57390000      -0.01720000
H       -0.28900000       2.02840000       0.92690000
H       -0.30700000       2.03840000      -0.89440000
H        1.89960000       0.78620000      -0.92290000
H        1.91760000       0.77620000       0.89810000
H       -0.55770000      -1.03850000       2.04290000
H       -2.43970000      -1.92780000       0.01560000
H       -2.43250000      -0.11230000       0.02550000
H       -0.59800000      -1.01610000      -2.03860000
H        1.88530000      -2.85010000      -0.94270000
H        1.90330000      -2.86000000       0.87830000
H       -0.31310000      -4.09510000       0.89350000
H       -0.33100000      -4.08510000      -0.92780000
