17
Properties=species:S:1:pos:R:3 gdb_2411=T pbc="F F F"
C       -0.16870000       1.56460000       0.80000000
C       -0.12690000       0.07780000       0.49730000
C        1.03630000      -0.48610000      -0.36860000
O        1.96960000      -0.21230000       0.75030000
C        0.77750000      -0.84590000       1.36310000
C        0.82220000      -1.90850000       0.22640000
C       -0.33880000      -2.82030000      -0.13650000
H        0.83140000       1.93820000       1.02700000
H       -0.56670000       2.12390000      -0.05390000
H       -0.82200000       1.76860000       1.65560000
H       -1.11970000      -0.31680000       0.26700000
H        1.35920000      -0.19420000      -1.37010000
H        0.78890000      -0.98710000       2.44590000
H        1.76850000      -2.45530000       0.25420000
H       -1.30280000      -2.30720000      -0.17530000
H       -0.16770000      -3.28000000      -1.11590000
H       -0.42450000      -3.63310000       0.59290000
