15
Properties=species:S:1:pos:R:3 gdb_128616=T pbc="F F F"
C        0.06770000       1.36850000       0.00730000
O       -0.03800000      -0.06250000       0.00370000
C       -1.27500000      -0.56290000       0.01090000
N       -2.33620000       0.16410000       0.02060000
C       -3.56810000      -0.50860000       0.02680000
N       -4.71320000       0.06240000       0.03650000
C       -3.50460000      -1.97860000       0.02310000
N       -2.41440000      -2.66120000       0.01310000
N       -1.26770000      -1.92500000       0.00610000
H        1.13750000       1.57620000      -0.00000000
H       -0.41480000       1.79080000      -0.87680000
H       -0.40160000       1.78540000       0.90100000
H       -4.58090000       1.07630000       0.03830000
H       -4.43450000      -2.53610000       0.02890000
H       -0.40450000      -2.44240000      -0.00050000
