19
Properties=species:S:1:pos:R:3 gdb_83554=T pbc="F F F"
C       -0.07620000       1.70010000       0.03020000
C        0.02580000       0.19030000      -0.04210000
C        0.78240000      -0.56920000      -1.17050000
C        2.19820000       0.02180000      -1.06890000
C        2.29490000       0.02250000       0.49680000
N        0.97390000      -0.54040000       0.91590000
C        0.89550000      -1.68740000      -0.08730000
C       -0.27110000      -2.54120000       0.09380000
N       -1.17910000      -3.24760000       0.20610000
H        0.85700000       2.21730000      -0.20430000
H       -0.83640000       2.05010000      -0.67570000
H       -0.38940000       2.00360000       1.03440000
H       -0.96700000      -0.24030000       0.11220000
H        0.36280000      -0.75170000      -2.16050000
H        2.94990000      -0.61370000      -1.54440000
H        2.27170000       1.01790000      -1.51120000
H        3.09540000      -0.61510000       0.87840000
H        2.42120000       1.01660000       0.92730000
H        1.79150000      -2.31470000      -0.10900000
