21
Properties=species:S:1:pos:R:3 gdb_41325=T pbc="F F F"
C        0.00410000       1.55590000       0.27160000
C        1.54670000       1.46830000      -0.07230000
C        1.18610000       0.24080000      -0.95070000
C        0.53610000       0.67450000      -2.32400000
C       -0.82220000      -0.08250000      -2.34420000
C       -0.74760000      -0.93130000      -1.04000000
C        0.45520000      -1.88470000      -1.23770000
C        1.61070000      -1.19590000      -1.16940000
C       -0.04580000       0.03130000      -0.06210000
H       -0.26210000       1.83690000       1.29250000
H       -0.53770000       2.20240000      -0.42130000
H        2.01150000       2.32900000      -0.56020000
H        2.12960000       1.20210000       0.81380000
H        0.39250000       1.75680000      -2.38230000
H        1.18700000       0.39270000      -3.15450000
H       -1.66700000       0.61280000      -2.29810000
H       -0.95680000      -0.70430000      -3.23270000
H       -1.68300000      -1.41580000      -0.75470000
H        0.34530000      -2.92770000      -1.51190000
H        2.60400000      -1.57620000      -1.37650000
H        0.23600000      -0.51010000       0.84540000
