11
Properties=species:S:1:pos:R:3 gdb_21504=T pbc="F F F"
N       -0.07470000       1.31280000       0.00820000
C        0.05500000      -0.03910000       0.00140000
O        1.10800000      -0.63660000      -0.01040000
C       -1.26430000      -0.76650000       0.00980000
N       -2.41090000      -0.13520000       0.02140000
O       -3.35230000      -1.15780000       0.02550000
C       -2.65120000      -2.29920000       0.01570000
N       -1.36890000      -2.13900000       0.00580000
H        0.76110000       1.87280000       0.00210000
H       -0.97870000       1.75460000       0.01670000
H       -3.21530000      -3.22010000       0.01710000
