18
Properties=species:S:1:pos:R:3 gdb_11676=T pbc="F F F"
C        0.02690000       1.32120000       0.04320000
O        0.06860000      -0.08930000      -0.05230000
C        0.70490000      -0.56160000      -1.17430000
C        0.28740000      -0.40060000      -2.67380000
C        1.54330000      -1.31300000      -2.67030000
C        2.18960000      -0.34500000      -1.63660000
C        0.88310000      -2.06310000      -1.46560000
O        1.68430000      -2.76610000      -0.55450000
H        1.03580000       1.75580000       0.07190000
H       -0.52350000       1.76960000      -0.79620000
H       -0.48950000       1.56250000       0.97470000
H       -0.66120000      -0.85480000      -2.97410000
H        0.42310000       0.58840000      -3.11540000
H        2.02340000      -1.75720000      -3.53930000
H        2.44850000       0.64880000      -2.00990000
H        2.96120000      -0.76380000      -0.99250000
H       -0.04180000      -2.60700000      -1.70070000
H        1.86810000      -3.63480000      -0.92450000
