17
Properties=species:S:1:pos:R:3 gdb_96605=T pbc="F F F"
C        0.04600000       1.42210000       0.11760000
N       -0.01340000      -0.02150000       0.09590000
C       -1.12460000      -0.64160000       0.00990000
C       -2.41550000      -0.00420000      -0.07370000
C       -3.44720000       0.61160000      -0.13910000
N       -1.10330000      -2.04500000      -0.00580000
C        0.19420000      -2.70970000       0.07760000
C       -2.25020000      -2.81360000      -0.09580000
O       -2.26060000      -4.02290000      -0.11110000
H        0.67320000       1.76230000      -0.71480000
H       -0.92590000       1.92640000       0.05530000
H        0.54990000       1.74090000       1.03770000
H       -4.36880000       1.13830000      -0.19780000
H        0.70310000      -2.42700000       1.00170000
H        0.00580000      -3.78130000       0.05270000
H        0.82620000      -2.40810000      -0.76070000
H       -3.16230000      -2.20190000      -0.15250000
