17
Properties=species:S:1:pos:R:3 gdb_50112=T pbc="F F F"
O       -0.10740000       0.18810000       0.73840000
C        0.41540000       0.67390000      -0.23170000
C        1.40050000       1.79510000      -0.14890000
O        2.28310000       1.94330000      -1.26830000
C        1.32930000       2.97430000      -1.04840000
C        0.27690000       3.20200000      -2.10660000
C        0.87140000       3.94350000      -3.32530000
C       -0.12190000       4.20870000      -4.35730000
C       -0.96310000       4.41180000      -5.19100000
H        0.21430000       0.31010000      -1.26170000
H        1.85100000       1.92450000       0.83440000
H        1.76680000       3.88950000      -0.64090000
H       -0.15380000       2.25520000      -2.43970000
H       -0.53760000       3.79700000      -1.67870000
H        1.32100000       4.88920000      -2.99480000
H        1.69000000       3.34310000      -3.74060000
H       -1.69550000       4.59810000      -5.93690000
