19
Properties=species:S:1:pos:R:3 gdb_113990=T pbc="F F F"
O       -0.23580000       0.77130000       1.02830000
C       -0.01420000       0.15180000      -0.22780000
C       -1.19520000      -0.69430000      -0.66460000
C       -0.95400000      -2.03130000      -1.34070000
C       -1.46260000      -1.96890000       0.07590000
O       -0.60240000      -2.23270000       1.15290000
C       -0.56350000      -3.59220000       1.56280000
C        0.17030000      -4.47870000       0.65750000
C        0.78370000      -5.22100000      -0.06130000
H       -0.33460000       0.05040000       1.66120000
H        0.15160000       0.96230000      -0.94510000
H        0.89560000      -0.46460000      -0.21150000
H       -2.07340000      -0.12990000      -0.96370000
H       -1.63140000      -2.36510000      -2.11890000
H        0.07810000      -2.33340000      -1.47470000
H       -2.49650000      -2.25640000       0.26820000
H       -0.07920000      -3.58940000       2.54490000
H       -1.58640000      -3.97450000       1.70320000
H        1.32200000      -5.87640000      -0.70070000
