23
Properties=species:S:1:pos:R:3 gdb_58674=T pbc="F F F"
C        2.74300000       0.27530000       0.95910000
C        1.51370000      -0.54520000       0.53260000
C        0.21660000       0.04700000       1.10930000
C        1.44920000      -0.71160000      -0.98570000
C        2.30110000      -1.79460000      -1.65510000
C        0.82010000      -1.95680000      -1.63720000
C        0.13350000      -3.04100000      -0.83580000
C        1.28970000       0.50580000      -1.82300000
O        1.18040000       1.64200000      -1.42790000
H        3.66810000      -0.16660000       0.57410000
H        2.67310000       1.30040000       0.58900000
H        2.81690000       0.30950000       2.05100000
H        1.63480000      -1.54980000       0.95560000
H        0.05630000       1.06180000       0.73960000
H       -0.65400000      -0.55860000       0.83770000
H        0.26990000       0.08460000       2.20230000
H        2.80070000      -1.56010000      -2.58960000
H        2.88930000      -2.40440000      -0.97640000
H        0.32620000      -1.74930000      -2.58450000
H        0.65910000      -3.26520000       0.09550000
H       -0.89550000      -2.76440000      -0.58510000
H        0.09540000      -3.96660000      -1.42060000
H        1.27570000       0.28810000      -2.91910000
