17
Properties=species:S:1:pos:R:3 gdb_44077=T pbc="F F F"
N       -0.14410000       1.22440000       0.05660000
C       -0.03590000      -0.03010000      -0.01550000
N        1.02410000      -0.95870000      -0.12000000
C        0.16760000      -2.10260000       0.12240000
C        0.19490000      -3.54650000      -0.35900000
C       -0.75030000      -3.89460000       0.84660000
C       -0.49220000      -2.48690000       1.47400000
O       -1.55730000      -1.52870000       1.31710000
C       -1.06820000      -1.16810000       0.00510000
H        0.76740000       1.68610000       0.08230000
H        1.94970000      -0.82380000       0.26850000
H       -0.16550000      -3.74760000      -1.37090000
H        1.18140000      -4.00620000      -0.24350000
H       -1.79700000      -4.03190000       0.57030000
H       -0.42680000      -4.73810000       1.45870000
H       -0.02490000      -2.44570000       2.46010000
H       -1.83010000      -1.19810000      -0.77500000
