23
Properties=species:S:1:pos:R:3 gdb_89475=T pbc="F F F"
C       -0.03950000       1.49670000       0.00400000
C        0.00370000      -0.02320000       0.00300000
C        0.78080000      -0.64510000      -1.18610000
C        1.05490000      -2.10900000      -0.72010000
C        0.43950000      -2.14980000       0.69710000
C        0.69850000      -0.71670000       1.20130000
C       -1.09240000      -2.15140000       0.55530000
O       -1.65000000      -2.40400000       1.84060000
C       -1.38920000      -0.70770000       0.04060000
H        0.97050000       1.92180000       0.00860000
H       -0.55470000       1.88210000      -0.88370000
H       -0.56760000       1.87930000       0.88450000
H        0.20960000      -0.59340000      -2.11870000
H        1.71740000      -0.10260000      -1.35250000
H        0.60980000      -2.85670000      -1.38440000
H        2.12780000      -2.31610000      -0.67850000
H        0.79690000      -2.96840000       1.32330000
H        1.76220000      -0.46800000       1.27860000
H        0.21190000      -0.51250000       2.15880000
H       -1.42800000      -2.92040000      -0.15590000
H       -2.60190000      -2.27510000       1.78130000
H       -2.04590000      -0.20190000       0.75760000
H       -1.88480000      -0.69290000      -0.93580000
