21
Properties=species:S:1:pos:R:3 gdb_59905=T pbc="F F F"
C       -0.22810000       1.62550000       0.17310000
C        0.06470000       0.12120000       0.11400000
C        0.96770000      -0.31650000       1.27480000
C       -1.24490000      -0.68090000       0.08870000
C       -1.05460000      -2.14810000      -0.27550000
O       -0.07460000      -2.58280000      -0.84500000
N       -2.12190000      -2.96150000       0.07090000
C       -2.18580000      -4.31680000      -0.20990000
N       -3.20500000      -4.99240000       0.13450000
H        0.70120000       2.20370000       0.16140000
H       -0.83670000       1.95210000      -0.67710000
H       -0.76850000       1.88900000       1.09060000
H        0.58940000      -0.09960000      -0.82240000
H        1.20980000      -1.38000000       1.20600000
H        1.90840000       0.24300000       1.26690000
H        0.48220000      -0.13310000       2.24150000
H       -1.76470000      -0.60420000       1.05320000
H       -1.93070000      -0.25690000      -0.65860000
H       -2.92110000      -2.57060000       0.54980000
H       -1.29260000      -4.67000000      -0.72830000
H       -3.09270000      -5.96560000      -0.14340000
