16
Properties=species:S:1:pos:R:3 gdb_72984=T pbc="F F F"
N        0.01310000       1.49830000       0.18190000
C       -0.02350000       0.10140000      -0.02500000
C        0.57370000      -0.74710000      -1.16190000
O       -0.59390000      -1.61720000      -1.16090000
C       -1.19270000      -0.84420000      -0.14370000
C       -0.34200000      -0.86780000       1.12980000
N        0.51850000      -1.98650000       1.39560000
C       -0.98720000      -0.24580000       2.26760000
N       -1.47470000       0.17870000       3.22790000
H        0.89960000       1.81070000       0.56380000
H       -0.17320000       2.01460000      -0.67060000
H        0.63610000      -0.19580000      -2.10700000
H        1.49610000      -1.29610000      -0.95970000
H       -2.26920000      -0.72120000      -0.13120000
H        1.17860000      -1.76550000       2.13400000
H       -0.01880000      -2.79470000       1.69230000
