19
Properties=species:S:1:pos:R:3 gdb_109359=T pbc="F F F"
C       -0.20370000       1.47610000       0.03320000
C        0.03690000      -0.04370000       0.01360000
C        0.77760000      -0.51640000      -1.21280000
C        2.08510000      -0.80530000      -1.22980000
C        2.77630000      -1.25610000      -2.48370000
C        1.75560000      -1.91650000      -3.39810000
O        0.58920000      -1.10240000      -3.57980000
C       -0.00350000      -0.55750000      -2.48550000
O       -1.10950000      -0.08930000      -2.59450000
H        0.74480000       2.02280000       0.01340000
H       -0.79740000       1.77910000      -0.83130000
H       -0.74220000       1.76540000       0.94100000
H        0.60670000      -0.33940000       0.90150000
H       -0.93020000      -0.55510000       0.06220000
H        2.67580000      -0.69740000      -0.32260000
H        3.25440000      -0.40250000      -2.98500000
H        3.57610000      -1.97010000      -2.25690000
H        2.14860000      -2.08750000      -4.40250000
H        1.44800000      -2.88290000      -2.97740000
