19
Properties=species:S:1:pos:R:3 gdb_85268=T pbc="F F F"
O       -0.01160000       1.40840000      -0.07650000
C        0.01650000      -0.00520000      -0.01250000
C        0.64660000      -0.58420000       1.26800000
C       -0.04720000      -1.93450000       1.45660000
O        0.34190000      -2.85620000       2.13300000
C       -1.30070000      -1.91890000       0.62940000
C       -1.63440000      -3.20820000      -0.11430000
C       -2.46260000      -2.78880000       1.05440000
C       -1.42900000      -0.53640000       0.01150000
H        0.89390000       1.72570000      -0.15020000
H        0.53730000      -0.42090000      -0.88960000
H        1.73450000      -0.68440000       1.25890000
H        0.37210000       0.06060000       2.11430000
H       -2.04700000      -3.10200000      -1.11200000
H       -0.94650000      -4.03490000       0.02420000
H       -2.33340000      -3.33340000       1.98360000
H       -3.45890000      -2.39980000       0.87360000
H       -2.01910000       0.13060000       0.65210000
H       -1.88780000      -0.53510000      -0.98030000
