15
Properties=species:S:1:pos:R:3 gdb_834=T pbc="F F F"
C       -0.01610000       1.50290000       0.06240000
C       -0.00610000       0.01310000      -0.04050000
C       -0.08250000      -0.81230000      -1.14320000
C       -0.02650000      -2.16370000      -0.68900000
N       -0.15230000      -3.30660000      -1.50740000
C        0.08390000      -2.12540000       0.68310000
N        0.08860000      -0.79330000       1.06110000
H        0.90470000       1.89570000       0.51250000
H       -0.10860000       1.94310000      -0.93300000
H       -0.85570000       1.87180000       0.66530000
H       -0.17860000      -0.48460000      -2.16800000
H        0.32440000      -3.18810000      -2.39310000
H        0.21390000      -4.13770000      -1.05970000
H        0.14850000      -2.91670000       1.41210000
H        0.16460000      -0.46690000       2.00770000
