21
Properties=species:S:1:pos:R:3 gdb_86430=T pbc="F F F"
C       -0.03040000       1.54190000       0.05260000
C       -0.02830000       0.04000000      -0.03070000
C       -0.07490000      -0.61470000      -1.19480000
C       -0.04980000      -2.11560000      -1.34150000
O        0.77060000      -2.51400000      -2.43970000
C        0.36970000      -2.80310000      -0.03690000
C       -0.34750000      -2.18280000       1.15550000
O        0.00990000      -2.92970000       2.31120000
C        0.03120000      -0.70200000       1.28760000
H        0.85010000       1.90670000       0.59760000
H       -0.03430000       2.00320000      -0.93820000
H       -0.90700000       1.90600000       0.60410000
H       -0.12740000      -0.06250000      -2.13100000
H       -1.05050000      -2.46720000      -1.62910000
H        1.65590000      -2.17170000      -2.27130000
H        0.16680000      -3.87630000      -0.08660000
H        1.45230000      -2.68120000       0.10360000
H       -1.43540000      -2.25120000       0.98310000
H       -0.45290000      -2.55080000       3.06560000
H        1.04590000      -0.64080000       1.70800000
H       -0.62480000      -0.20690000       2.01850000
