17
Properties=species:S:1:pos:R:3 gdb_93466=T pbc="F F F"
N        0.01160000       1.48490000       0.16260000
C       -0.01770000       0.04100000      -0.01390000
C       -1.44600000      -0.50740000      -0.00650000
C       -1.43970000      -2.03120000      -0.15020000
C       -0.64290000      -2.52180000      -1.34630000
O       -0.84280000      -3.57060000      -1.91160000
N        0.38410000      -1.67440000      -1.76700000
C        0.74120000      -0.42770000      -1.26570000
O        1.61560000       0.22590000      -1.78880000
H        0.96130000       1.80520000      -0.01420000
H       -0.54990000       1.91900000      -0.56710000
H        0.52090000      -0.40910000       0.83530000
H       -1.94120000      -0.20810000       0.92040000
H       -2.01250000      -0.05660000      -0.83230000
H       -0.99090000      -2.49110000       0.74080000
H       -2.44510000      -2.44690000      -0.24250000
H        0.91150000      -1.99530000      -2.57150000
