19
Properties=species:S:1:pos:R:3 gdb_87058=T pbc="F F F"
C       -0.27940000       1.46650000       0.14470000
N       -0.10690000       0.02650000       0.29630000
C        1.15590000      -0.55200000      -0.13520000
C        0.81070000      -0.48620000       1.32800000
C        1.55360000       0.42750000       2.15980000
C        2.15530000       1.16470000       2.89580000
C        0.32540000      -1.72800000       2.04380000
C       -1.00470000      -1.72180000       2.69630000
N       -0.77260000      -2.50680000       1.46940000
H        0.64510000       2.03920000       0.30130000
H       -0.65050000       1.66340000      -0.86540000
H       -1.02720000       1.81790000       0.86130000
H        1.09250000      -1.50640000      -0.65150000
H        1.93220000       0.12340000      -0.48900000
H        2.69450000       1.81500000       3.53950000
H        1.12670000      -2.32040000       2.47910000
H       -1.17520000      -2.30430000       3.59690000
H       -1.59520000      -0.81280000       2.61550000
H       -1.14680000      -1.97070000       0.68540000
