17
Properties=species:S:1:pos:R:3 gdb_49939=T pbc="F F F"
O       -0.18790000      -0.04840000      -0.13720000
C       -0.07670000       1.13220000       0.06830000
C        1.23290000       1.87850000       0.06240000
C        1.18000000       3.18940000      -0.77790000
N        0.89100000       3.93600000       0.45970000
C        1.46530000       5.25620000       0.61030000
C        1.10980000       5.84730000       1.90530000
N        0.84760000       6.30250000       2.93370000
C        1.40060000       2.82560000       1.28820000
H       -0.96300000       1.77230000       0.28250000
H        2.04970000       1.18960000      -0.14740000
H        2.16400000       3.41800000      -1.21700000
H        0.41340000       3.27510000      -1.55550000
H        2.56960000       5.26090000       0.52490000
H        1.08010000       5.90470000      -0.18560000
H        0.81330000       2.61760000       2.18750000
H        2.46040000       2.93160000       1.56730000
