18
Properties=species:S:1:pos:R:3 gdb_71663=T pbc="F F F"
O       -0.10070000       1.36770000       0.02360000
C        0.05740000      -0.02280000       0.01270000
C        0.79800000      -0.70860000       1.19360000
C        0.37880000      -2.13250000       0.79980000
C       -1.15530000      -2.05160000       0.73110000
C       -1.31160000      -0.75870000       0.02010000
N       -1.19650000      -2.02970000      -0.76340000
C        0.32090000      -2.10510000      -0.78780000
C        0.74930000      -0.70290000      -1.20010000
H        0.77330000       1.77080000       0.02310000
H        1.88010000      -0.53210000       1.17600000
H        0.39490000      -0.41020000       2.16600000
H        0.85260000      -2.97690000       1.29430000
H       -1.90200000      -2.55620000       1.33450000
H       -2.24210000      -0.21230000      -0.06220000
H        0.69620000      -2.96230000      -1.34290000
H        0.31220000      -0.40820000      -2.15770000
H        1.83330000      -0.54610000      -1.21960000
