11
Properties=species:S:1:pos:R:3 gdb_21369=T pbc="F F F"
N       -0.03730000       1.35930000       0.01020000
C        1.28250000       1.75760000      -0.00060000
N        2.15750000       0.76530000      -0.01470000
C        1.34510000      -0.33310000      -0.01280000
C        0.00310000      -0.01880000       0.00220000
N       -0.76900000      -1.12590000       0.00360000
N        0.05520000      -2.14810000      -0.01020000
N        1.34320000      -1.68680000      -0.02020000
H       -0.84270000       1.96110000       0.02150000
H        1.54780000       2.80480000       0.00260000
H        2.09570000      -2.35460000      -0.03130000
