14
Properties=species:S:1:pos:R:3 gdb_17016=T pbc="F F F"
O       -0.67810000       0.81550000       0.57490000
C        0.10160000       1.07110000      -0.30780000
C        1.29430000       1.98500000      -0.19790000
C        1.09270000       3.51270000      -0.59020000
C        0.36450000       3.67990000       0.78510000
C        1.58370000       2.74970000       1.13840000
C        2.37850000       3.71030000       0.23790000
O        3.41000000       4.30180000       0.19940000
H       -0.00580000       0.60950000      -1.31610000
H        2.14950000       1.50800000      -0.69000000
H        0.81340000       3.91280000      -1.56210000
H        0.36600000       4.68070000       1.21910000
H       -0.60740000       3.20010000       0.86800000
H        1.83750000       2.31430000       2.10100000
