17
Properties=species:S:1:pos:R:3 gdb_81577=T pbc="F F F"
N       -0.10420000       1.33530000       0.07810000
C       -0.14860000      -0.02900000       0.18220000
O        0.69250000      -0.67840000       0.79500000
N       -1.21420000      -0.59910000      -0.51670000
C       -2.67320000      -0.47670000      -0.08800000
C       -2.93980000      -1.67530000      -1.02960000
C       -1.65530000      -2.02010000      -0.22910000
C       -2.40570000      -1.53740000       1.05250000
O       -1.71790000      -1.20600000       2.20590000
H        0.74140000       1.77070000       0.40880000
H       -0.58060000       1.77970000      -0.68880000
H       -3.17560000       0.48950000      -0.04420000
H       -3.82420000      -2.27960000      -0.82680000
H       -2.78690000      -1.47720000      -2.08910000
H       -0.97140000      -2.85770000      -0.35430000
H       -3.28840000      -2.12410000       1.32940000
H       -0.76890000      -1.16160000       2.00770000
