16
Properties=species:S:1:pos:R:3 gdb_11872=T pbc="F F F"
N       -0.05640000       1.27990000      -0.07640000
C       -0.03510000       0.01890000      -0.05680000
C       -1.25100000      -0.88610000      -0.05500000
C       -0.66920000      -2.22810000      -0.46030000
C       -1.43770000      -3.48400000      -0.56390000
N       -0.91970000      -2.82290000      -1.78000000
C        0.78180000      -2.14550000      -0.01540000
O        1.10060000      -0.74280000      -0.02910000
H        0.89410000       1.65400000      -0.05930000
H       -1.66790000      -0.92160000       0.95880000
H       -2.02960000      -0.50840000      -0.72000000
H       -0.96920000      -4.43640000      -0.32840000
H       -2.50460000      -3.44570000      -0.35770000
H       -1.67150000      -2.32680000      -2.25350000
H        0.92620000      -2.53060000       1.00220000
H        1.45210000      -2.66510000      -0.70270000
