15
Properties=species:S:1:pos:R:3 gdb_25551=T pbc="F F F"
N        0.14690000       1.27900000      -0.17430000
C        0.09580000       0.01520000      -0.08420000
O        1.14200000      -0.88040000      -0.10860000
C        0.61920000      -2.15710000       0.01850000
C       -0.71030000      -2.08900000       0.12430000
N       -1.05790000      -0.73700000       0.06020000
C       -2.37780000      -0.15870000       0.09920000
C       -2.96020000      -0.10850000       1.50810000
O       -4.13480000      -0.19340000       1.74540000
H        1.10150000       1.60370000      -0.29390000
H        1.32140000      -2.97090000       0.01700000
H       -1.44830000      -2.86520000       0.23340000
H       -2.27570000       0.87360000      -0.25860000
H       -3.07080000      -0.69030000      -0.55990000
H       -2.19830000       0.02450000       2.30850000
