23
Properties=species:S:1:pos:R:3 gdb_77895=T pbc="F F F"
C        0.34340000       1.91240000      -0.22250000
C        0.43730000       0.40550000      -0.06520000
C        1.58730000      -0.53230000      -0.38440000
C        2.97150000      -0.06800000       0.09860000
C        3.68460000       1.10620000      -0.56750000
C        2.40300000       0.03380000       1.57000000
C        2.55600000       1.29000000       2.42310000
C        1.03150000      -0.41820000       1.04140000
O        0.27780000      -1.36990000       1.72110000
H        1.22460000       2.44370000       0.13270000
H        0.20080000       2.17810000      -1.27620000
H       -0.51870000       2.30110000       0.33250000
H       -0.48710000      -0.08090000      -0.38090000
H        1.44010000      -1.33890000      -1.09430000
H        3.65140000      -0.92580000       0.06040000
H        3.09490000       2.02450000      -0.57580000
H        4.63070000       1.32380000      -0.05890000
H        3.92150000       0.86300000      -1.60940000
H        2.80600000      -0.81050000       2.13920000
H        2.19560000       2.19500000       1.92980000
H        1.99790000       1.18250000       3.36040000
H        3.60640000       1.45450000       2.68830000
H       -0.43590000      -0.91760000       2.18240000
