19
Properties=species:S:1:pos:R:3 gdb_68292=T pbc="F F F"
C        0.14440000       1.48340000       0.07500000
C        0.04130000      -0.00190000      -0.06370000
C        0.70450000      -0.96280000      -1.08860000
C        0.04720000      -1.80300000       0.02700000
O        0.59370000      -0.85850000       1.03040000
C       -1.20900000      -0.92010000      -0.05250000
C       -2.30650000      -0.86990000       1.01230000
O       -3.33050000      -0.91040000      -0.01070000
C       -2.35690000      -0.97230000      -1.07220000
H        1.19210000       1.78850000       0.15360000
H       -0.29530000       1.97670000      -0.79770000
H       -0.38420000       1.82580000       0.96990000
H        0.28370000      -1.01450000      -2.09690000
H        1.79540000      -0.96040000      -1.08090000
H        0.13260000      -2.86850000       0.24140000
H       -2.35990000      -1.73460000       1.68470000
H       -2.35820000       0.04880000       1.60960000
H       -2.43470000      -0.11560000      -1.75520000
H       -2.43920000      -1.89840000      -1.65670000
