11
Properties=species:S:1:pos:R:3 gdb_2568=T pbc="F F F"
O       -0.57420000       0.68810000      -0.70310000
C        0.31550000       0.82950000       0.08800000
C        1.41070000       1.86200000      -0.01740000
C        1.85740000       2.46140000       1.27100000
O        2.61810000       1.44340000       0.65830000
C        1.55430000       2.58240000      -1.25100000
C        1.65920000       3.17500000      -2.28990000
H        0.42640000       0.20000000       0.99820000
H        2.27830000       3.46400000       1.23530000
H        1.34730000       2.18620000       2.19390000
H        1.75160000       3.69570000      -3.21140000
