22
Properties=species:S:1:pos:R:3 gdb_119990=T pbc="F F F"
C       -0.58490000       0.81760000      -1.76490000
N       -0.10920000      -0.22070000      -0.86010000
C        1.28640000      -0.22570000      -0.42460000
C        2.30000000       0.80270000      -0.87710000
O        2.67500000       0.62390000      -2.23860000
C        0.18450000       0.06840000       0.54750000
C       -0.01780000       1.41930000       1.20520000
C       -1.45430000       1.61250000       1.68480000
O       -1.51750000       2.86030000       2.35700000
H       -0.26610000       1.84240000      -1.53120000
H       -0.22970000       0.58600000      -2.77250000
H       -1.67970000       0.80000000      -1.77090000
H        1.71320000      -1.23230000      -0.39530000
H        1.91370000       1.82150000      -0.81490000
H        3.17780000       0.75060000      -0.21280000
H        2.98490000      -0.28220000      -2.34060000
H       -0.10590000      -0.75520000       1.20260000
H        0.64450000       1.49640000       2.07640000
H        0.24080000       2.25060000       0.54540000
H       -2.14280000       1.58390000       0.82550000
H       -1.73470000       0.78160000       2.35300000
H       -2.42290000       3.00020000       2.64890000
