21
Properties=species:S:1:pos:R:3 gdb_120778=T pbc="F F F"
O       -0.01200000       1.29900000       0.40590000
C       -0.18010000      -0.10890000       0.44070000
C       -1.37180000      -0.58440000      -0.39630000
C       -1.49130000      -2.09160000      -0.41410000
N       -2.01350000      -2.75160000       0.80140000
C       -2.78430000      -2.83200000      -0.44860000
C       -4.12590000      -2.15530000      -0.43990000
C       -5.16640000      -2.60750000       0.51770000
N       -4.50680000      -1.30230000       0.69340000
H       -0.79670000       1.69650000       0.79680000
H        0.75210000      -0.52540000       0.04130000
H       -0.28640000      -0.47990000       1.47140000
H       -2.29380000      -0.14140000      -0.00470000
H       -1.25190000      -0.21770000      -1.42310000
H       -0.65780000      -2.59570000      -0.90400000
H       -1.52360000      -3.62060000       0.98910000
H       -2.76930000      -3.78030000      -0.98550000
H       -4.44660000      -1.77710000      -1.40910000
H       -6.21710000      -2.56460000       0.24490000
H       -4.90200000      -3.40890000       1.20310000
H       -3.78150000      -1.41650000       1.40210000
