20
Properties=species:S:1:pos:R:3 gdb_109238=T pbc="F F F"
C        0.06710000       1.52170000       0.02600000
C       -0.00660000       0.01440000      -0.03920000
C       -0.88110000      -0.77620000       0.87780000
N        0.57450000      -0.77560000       1.07450000
C        1.27110000      -1.93120000       0.46460000
C        1.04260000      -1.81390000      -1.02440000
C        0.34620000      -0.71260000      -1.30680000
C       -0.08190000      -0.22290000      -2.65130000
O        0.37610000      -1.11520000      -3.65030000
H        1.04910000       1.88320000      -0.29810000
H       -0.69360000       1.98430000      -0.61360000
H       -0.09820000       1.86420000       1.05040000
H       -1.43780000      -0.27760000       1.66830000
H       -1.35400000      -1.67010000       0.47540000
H        2.33780000      -1.88370000       0.72340000
H        0.88810000      -2.87030000       0.88510000
H        1.38330000      -2.53980000      -1.75090000
H       -1.18290000      -0.12900000      -2.66960000
H        0.31310000       0.79570000      -2.81160000
H        0.11090000      -0.76700000      -4.50610000
