19
Properties=species:S:1:pos:R:3 gdb_83460=T pbc="F F F"
C       -0.06990000       1.50960000       0.15360000
C        0.08250000       0.00760000       0.26770000
C        1.30310000      -0.79760000      -0.14210000
C        2.60720000      -0.06540000       0.20530000
C        2.17280000      -0.02540000       1.70840000
C        0.87060000      -0.72510000       1.31650000
O        0.32610000      -1.75920000       2.09200000
C       -0.73600000      -1.45690000       2.87430000
O       -1.24880000      -2.25790000       3.59480000
H        0.84140000       2.04310000       0.43540000
H       -0.31560000       1.79590000      -0.87460000
H       -0.87640000       1.87180000       0.80040000
H       -0.82450000      -0.54170000       0.01900000
H        1.21270000      -1.62430000      -0.83570000
H        3.49390000      -0.68170000       0.04800000
H        2.76260000       0.89950000      -0.28470000
H        2.79660000      -0.67260000       2.32780000
H        2.08650000       0.95210000       2.19300000
H       -1.06270000      -0.40700000       2.76000000
