18
Properties=species:S:1:pos:R:3 gdb_30915=T pbc="F F F"
C       -0.15280000       1.41530000       0.10450000
N       -0.07120000      -0.03150000       0.06990000
C       -0.06490000      -0.80190000      -1.05370000
C        0.06640000      -2.12720000      -0.68900000
C        0.13990000      -2.14420000       0.72670000
O        0.26060000      -3.22560000       1.55470000
C        0.06100000      -0.84310000       1.18910000
C        0.06820000      -0.32390000       2.58180000
O       -1.16260000       0.30740000       2.96930000
H        0.83290000       1.87260000       0.25450000
H       -0.55950000       1.77310000      -0.84350000
H       -0.81090000       1.72280000       0.91990000
H       -0.16010000      -0.35160000      -2.02950000
H        0.09110000      -2.97560000      -1.35650000
H        0.33570000      -4.01610000       1.01330000
H        0.31700000      -1.15620000       3.25300000
H        0.82840000       0.45230000       2.72920000
H       -1.86590000      -0.32260000       2.77720000
