25
Properties=species:S:1:pos:R:3 gdb_104447=T pbc="F F F"
C       -0.09130000       1.54160000       0.19870000
C        0.03090000       0.02870000      -0.01880000
C        0.69430000      -0.43430000      -1.33890000
C       -0.11320000       0.08930000      -2.54300000
C        2.16530000       0.04950000      -1.40470000
C        2.97470000      -0.66240000      -2.49210000
O        2.93930000      -2.07070000      -2.34280000
C        1.61650000      -2.57150000      -2.43020000
C        0.71540000      -1.98430000      -1.34110000
H        0.88490000       2.03670000       0.18790000
H       -0.71630000       2.01820000      -0.56240000
H       -0.54970000       1.74770000       1.17110000
H        0.59860000      -0.40230000       0.81620000
H       -0.97060000      -0.42010000       0.03490000
H       -0.08350000       1.18150000      -2.60040000
H        0.26450000      -0.29280000      -3.49490000
H       -1.16370000      -0.21300000      -2.46410000
H        2.21210000       1.13160000      -1.57370000
H        2.64820000      -0.14740000      -0.43890000
H        2.61020000      -0.38020000      -3.49460000
H        4.02930000      -0.37580000      -2.43450000
H        1.20310000      -2.36940000      -3.43290000
H        1.69280000      -3.65760000      -2.32120000
H        1.08820000      -2.33480000      -0.37050000
H       -0.30300000      -2.37770000      -1.45430000
