18
Properties=species:S:1:pos:R:3 gdb_78276=T pbc="F F F"
C       -0.00160000       1.51490000      -0.07270000
C       -0.03380000       0.00590000      -0.08500000
C        0.73250000      -0.71190000      -1.12900000
N        1.27940000      -0.60640000       0.26730000
C        1.19630000      -2.10930000       0.37550000
C       -0.09040000      -2.84190000       0.03910000
O       -1.41870000      -2.52210000       0.35580000
C        0.70710000      -2.25370000      -1.07000000
O        1.24840000      -3.00430000      -2.09700000
H        0.95270000       1.88630000      -0.45700000
H       -0.80990000       1.92230000      -0.68910000
H       -0.12450000       1.89400000       0.94690000
H       -0.93370000      -0.45370000       0.29870000
H        1.24300000      -0.21400000      -1.94860000
H        1.99670000      -2.59820000       0.91850000
H        0.11510000      -3.91550000       0.08140000
H       -1.54740000      -2.70500000       1.29360000
H        0.53350000      -3.26620000      -2.68870000
