16
Properties=species:S:1:pos:R:3 gdb_51397=T pbc="F F F"
N       -0.13600000       1.27990000       0.12140000
C       -0.08190000       0.02130000       0.14470000
O       -1.12610000      -0.70270000      -0.31800000
C       -1.03600000      -2.10290000      -0.16140000
C       -1.63380000      -2.72890000       1.15250000
C       -3.03860000      -2.31590000       0.57500000
C       -2.28010000      -2.87170000      -0.68940000
C       -1.82470000      -3.97550000       0.27960000
O       -1.73010000      -5.16110000       0.33870000
H        0.73140000       1.67340000       0.48020000
H        0.75420000      -0.59530000       0.50160000
H       -0.05260000      -2.46160000      -0.48020000
H       -1.26590000      -2.63590000       2.17120000
H       -3.90300000      -2.88060000       0.92410000
H       -3.21910000      -1.24390000       0.55190000
H       -2.63150000      -2.93580000      -1.71560000
