20
Properties=species:S:1:pos:R:3 gdb_60078=T pbc="F F F"
C        0.12510000       1.50320000      -0.01040000
C        0.05170000      -0.00070000       0.24840000
O        0.30910000      -0.30550000       1.61780000
C       -1.28800000      -0.59960000      -0.21430000
C       -1.32490000      -2.12400000      -0.19170000
C       -1.55210000      -2.85410000       1.12260000
C       -2.63990000      -2.84070000       0.09370000
C       -0.44340000      -2.75540000      -1.14290000
N        0.26810000      -3.24160000      -1.91570000
H        1.07410000       1.90180000       0.35760000
H        0.04490000       1.72810000      -1.07830000
H       -0.69090000       2.02910000       0.50280000
H        0.86150000      -0.49660000      -0.30020000
H       -0.23890000       0.27830000       2.15430000
H       -2.08920000      -0.22020000       0.43330000
H       -1.51110000      -0.25070000      -1.22980000
H       -1.00770000      -3.77630000       1.28430000
H       -1.64390000      -2.22550000       1.99880000
H       -3.50600000      -2.20790000       0.25430000
H       -2.84220000      -3.75330000      -0.45390000
