23
Properties=species:S:1:pos:R:3 gdb_108987=T pbc="F F F"
C        0.03010000       1.49860000      -0.09900000
C       -0.00720000      -0.03350000       0.06620000
C        0.72540000      -0.52800000       1.27200000
C        0.26440000      -0.95850000       2.45200000
C        1.53260000      -1.30400000       3.24010000
C        2.34250000      -2.06030000       2.13620000
C        2.26770000      -0.65220000       1.43760000
C        3.18900000      -0.27570000       0.29850000
C        2.42710000      -0.06890000       2.88920000
H        1.05450000       1.86880000      -0.19960000
H       -0.52550000       1.80620000      -0.99080000
H       -0.41760000       1.99000000       0.77020000
H       -1.05250000      -0.35760000       0.13040000
H        0.40520000      -0.49710000      -0.84020000
H       -0.75680000      -1.05990000       2.79440000
H        1.43330000      -1.68400000       4.25630000
H        3.35980000      -2.32970000       2.44270000
H        1.85130000      -2.89890000       1.63590000
H        2.95610000      -0.84280000      -0.61020000
H        3.11860000       0.78930000       0.05230000
H        4.23220000      -0.48440000       0.55790000
H        2.01350000       0.92450000       3.08150000
H        3.45140000      -0.14530000       3.27160000
