16
Properties=species:S:1:pos:R:3 gdb_12472=T pbc="F F F"
O       -0.08880000       1.09300000       1.60820000
C       -0.12360000       1.47770000       0.46560000
O       -1.33320000       1.75270000      -0.07910000
C       -1.49980000       2.09980000      -1.45560000
C       -0.83490000       3.42550000      -1.81870000
C        0.62660000       3.25860000      -2.23600000
C        1.46560000       2.36770000      -1.37220000
C        1.14140000       1.62950000      -0.30480000
H       -1.13680000       1.28510000      -2.09570000
H       -2.58340000       2.16380000      -1.57580000
H       -1.38850000       3.89700000      -2.63780000
H       -0.92220000       4.09220000      -0.95370000
H        0.67380000       2.85550000      -3.25930000
H        1.11580000       4.23990000      -2.30310000
H        2.51000000       2.32170000      -1.67940000
H        1.93360000       1.07710000       0.19090000
