15
Properties=species:S:1:pos:R:3 gdb_3260=T pbc="F F F"
C       -0.04730000       1.47290000      -0.08020000
O        1.21700000       2.10580000       0.04670000
C        2.00670000       2.14300000      -1.11660000
C        2.47070000       0.82350000      -1.66500000
C        2.03870000      -0.41030000      -1.36640000
C        0.93520000      -0.81310000      -0.49930000
C        0.00190000      -0.02600000       0.05100000
H       -0.66700000       1.89090000       0.72030000
H       -0.52260000       1.75760000      -1.03450000
H        1.50380000       2.71350000      -1.92030000
H        2.88970000       2.73300000      -0.83690000
H        3.28320000       0.91830000      -2.38400000
H        2.55330000      -1.23620000      -1.85270000
H        0.85850000      -1.88370000      -0.32430000
H       -0.78320000      -0.48100000       0.64960000
