15
Properties=species:S:1:pos:R:3 gdb_42807=T pbc="F F F"
O       -0.06350000      -0.02290000      -0.27230000
C       -0.05060000       1.13680000       0.00470000
C       -1.06270000       2.30590000       0.03090000
C       -0.82180000       2.95860000       1.39750000
C        0.75920000       2.96600000       1.38900000
C        1.37190000       2.26990000       2.51330000
N        1.85650000       1.71990000       3.40680000
C        0.99510000       2.28080000       0.02120000
N       -0.02400000       3.02990000      -0.80860000
H       -2.07910000       2.23110000      -0.34870000
H       -1.21790000       3.97400000       1.43670000
H       -1.23460000       2.37620000       2.22260000
H        1.14030000       3.98950000       1.35620000
H        2.01410000       2.18860000      -0.34650000
H       -0.02650000       2.64110000      -1.75210000
