18
Properties=species:S:1:pos:R:3 gdb_56959=T pbc="F F F"
C       -0.08390000       1.57130000      -0.11570000
C        0.11620000       0.06570000       0.11620000
C        0.80710000      -0.20450000       1.37550000
C        1.38250000      -0.43310000       2.40500000
N       -1.21640000      -0.57230000       0.12340000
C       -1.67870000      -1.17600000      -1.10210000
C       -1.34670000      -2.03580000       0.08960000
C       -0.17750000      -2.95090000      -0.01330000
O       -0.17530000      -4.06840000       0.43970000
H        0.88050000       2.08480000      -0.13280000
H       -0.58690000       1.73640000      -1.07300000
H       -0.69980000       1.99330000       0.68120000
H        0.74260000      -0.32080000      -0.70500000
H        1.89020000      -0.64030000       3.31480000
H       -2.72090000      -1.01910000      -1.36590000
H       -0.99100000      -1.21920000      -1.94790000
H       -2.15290000      -2.43080000       0.70150000
H        0.70220000      -2.55050000      -0.56250000
