15
Properties=species:S:1:pos:R:3 gdb_74716=T pbc="F F F"
N       -0.00910000       1.26120000       0.09340000
C        0.00200000      -0.08530000      -0.02830000
N       -1.01620000      -0.89240000      -0.03060000
C       -0.32540000      -2.21260000      -0.02270000
C        0.83780000      -2.02190000      -1.03740000
C        1.27580000      -0.89750000      -0.02220000
O        2.47750000      -0.22100000      -0.00800000
C        0.76700000      -1.94530000       1.05880000
O        1.17230000      -2.35220000       2.09820000
H        0.82220000       1.76500000      -0.16700000
H       -0.89300000       1.73660000       0.00560000
H       -0.98450000      -3.07470000      -0.02410000
H        1.54100000      -2.85840000      -1.09300000
H        0.53720000      -1.66850000      -2.02610000
H        3.08740000      -0.68820000       0.57460000
