13
Properties=species:S:1:pos:R:3 gdb_24913=T pbc="F F F"
N       -0.05000000       1.20640000       0.00720000
C       -0.02780000      -0.04660000       0.00070000
C       -1.28190000      -0.96280000       0.00280000
C       -0.58460000      -2.27240000      -0.00770000
C        0.74360000      -2.11000000      -0.01410000
O        1.15990000      -0.80600000      -0.00970000
N        1.41030000      -3.30140000      -0.02390000
C        0.42180000      -4.15390000      -0.02270000
O       -0.83220000      -3.61240000      -0.01330000
H        0.89370000       1.59590000       0.00410000
H       -1.88920000      -0.75670000       0.89040000
H       -1.89880000      -0.74760000      -0.87600000
H        0.47630000      -5.23010000      -0.02850000
