13
Properties=species:S:1:pos:R:3 gdb_129079=T pbc="F F F"
N        0.01920000       1.37900000       0.01060000
C        0.00420000       0.09350000       0.00350000
C        1.19100000      -0.77460000      -0.00770000
N        1.21720000      -2.05760000      -0.01500000
O        0.00120000      -2.72750000      -0.01220000
C       -1.17080000      -2.01830000      -0.00190000
C       -1.22310000      -0.66940000       0.00590000
C       -2.30380000      -2.87070000      -0.00050000
C       -3.26570000      -3.59270000       0.00060000
H        0.98050000       1.72790000       0.00740000
H        2.18070000      -0.32130000      -0.01050000
H       -2.17700000      -0.16000000       0.01390000
H       -4.11680000      -4.22890000       0.00170000
