20
Properties=species:S:1:pos:R:3 gdb_111469=T pbc="F F F"
C       -0.07610000       1.54140000       0.12420000
C        0.03160000       0.01520000       0.09460000
C        0.74440000      -0.51420000      -1.14900000
N        2.16470000      -0.14050000      -1.25880000
C        3.04210000      -0.83290000      -0.30290000
C        2.92580000      -1.34420000      -1.69130000
C        1.99710000      -2.52080000      -1.90130000
C        0.66420000      -2.04470000      -1.30730000
O       -0.28060000      -2.73430000      -1.02650000
H        0.91330000       2.00620000       0.09140000
H       -0.64520000       1.91250000      -0.73540000
H       -0.58390000       1.88010000       1.03230000
H        0.55540000      -0.34100000       0.98990000
H       -0.96130000      -0.44670000       0.11740000
H        0.24370000      -0.09620000      -2.03710000
H        3.91610000      -0.26630000       0.00340000
H        2.59230000      -1.42680000       0.49230000
H        3.72230000      -1.16560000      -2.40680000
H        1.84550000      -2.73520000      -2.96640000
H        2.31970000      -3.45050000      -1.42540000
