14
Properties=species:S:1:pos:R:3 gdb_19773=T pbc="F F F"
C       -0.00490000       1.52430000      -0.08340000
O        1.26280000       2.08430000       0.27240000
C        2.21960000       1.13590000       0.64840000
C        2.24740000      -0.21650000      -0.03470000
O        1.07950000      -0.49480000      -0.77880000
C        0.03950000       0.00600000       0.04930000
O        0.39760000      -0.32560000       1.38350000
C        1.79230000      -0.10350000       1.40830000
H       -0.77640000       1.93450000       0.58050000
H       -0.24070000       1.80160000      -1.11870000
H        3.15800000       1.61380000       0.90690000
H        3.13150000      -0.71580000      -0.40850000
H       -0.90310000      -0.47940000      -0.20990000
H        2.28190000      -0.50490000       2.28570000
