17
Properties=species:S:1:pos:R:3 gdb_49326=T pbc="F F F"
O       -0.37020000       0.53890000       0.68180000
C        0.31200000       0.96240000      -0.21550000
C        1.35450000       2.04730000      -0.09220000
C        0.97140000       3.38100000      -0.81600000
O        0.66640000       3.63830000      -1.94020000
C        1.14280000       4.19030000       0.47540000
C        1.51170000       2.87740000       1.19260000
C        1.12530000       2.49110000       2.59000000
C        2.57730000       2.70720000       2.23690000
H        0.20420000       0.57920000      -1.25410000
H        2.29040000       1.65840000      -0.51710000
H        1.92940000       4.94950000       0.40950000
H        0.21750000       4.67570000       0.80520000
H        0.63150000       3.24540000       3.19420000
H        0.77390000       1.48120000       2.75420000
H        3.22250000       1.83660000       2.17140000
H        3.07130000       3.60070000       2.60520000
