19
Properties=species:S:1:pos:R:3 gdb_65553=T pbc="F F F"
C        0.02640000       1.59860000      -0.16550000
C        0.07650000       0.07630000      -0.04860000
O        0.96580000      -0.50760000      -1.03270000
C        1.88070000      -1.26380000      -0.21210000
C        0.95640000      -1.97550000       0.80440000
C        0.72090000      -0.49090000       1.24240000
C        2.23650000      -0.27850000       0.92520000
C       -1.33450000      -0.47580000      -0.26380000
O       -2.27320000      -0.19150000       0.43420000
H        0.98550000       2.05250000       0.09090000
H       -0.22190000       1.88820000      -1.19110000
H       -0.74740000       1.98910000       0.50090000
H        2.60750000      -1.76720000      -0.84690000
H        0.11870000      -2.55560000       0.41160000
H        1.50110000      -2.54930000       1.55530000
H        0.25390000      -0.21390000       2.18530000
H        2.87980000      -0.71640000       1.69030000
H        2.59350000       0.71270000       0.64240000
H       -1.42510000      -1.16320000      -1.13390000
