15
Properties=species:S:1:pos:R:3 gdb_31934=T pbc="F F F"
C        0.02390000       1.49460000      -0.19270000
N        0.18510000       0.06340000       0.02370000
C        0.61880000      -0.75860000      -0.96950000
C        0.60550000      -2.12780000      -1.15400000
N        1.24820000      -2.41830000      -2.32330000
C        1.62680000      -1.27620000      -2.81820000
O        1.25690000      -0.20210000      -2.01310000
C        2.34550000      -0.94250000      -4.03870000
O        2.74010000      -1.74590000      -4.85290000
H        0.96560000       1.92090000      -0.54400000
H       -0.75800000       1.73250000      -0.92670000
H       -0.23090000       1.96180000       0.76010000
H       -0.46550000      -0.36680000       0.66140000
H        0.17860000      -2.88720000      -0.51880000
H        2.50290000       0.15150000      -4.15660000
