19
Properties=species:S:1:pos:R:3 gdb_72021=T pbc="F F F"
C        0.00050000       1.50290000       0.00290000
C       -0.00300000      -0.00530000      -0.07490000
C        0.86310000      -0.73020000      -1.12050000
C        0.71100000      -2.10650000      -0.44450000
O        1.27500000      -1.83620000       0.85270000
C        0.33630000      -0.84790000       1.25290000
C       -1.04920000      -1.50870000       1.15340000
C       -0.82420000      -2.19330000      -0.17860000
C       -1.34990000      -0.76890000      -0.12600000
H        1.01020000       1.88480000       0.18990000
H       -0.35720000       1.95150000      -0.93100000
H       -0.64850000       1.86130000       0.80990000
H        0.42390000      -0.68210000      -2.12180000
H        1.90730000      -0.40710000      -1.14840000
H        1.19170000      -2.97400000      -0.89230000
H        0.65800000      -0.33240000       2.15550000
H       -1.69450000      -1.87660000       1.94060000
H       -1.43850000      -3.02460000      -0.49490000
H       -2.29210000      -0.43230000      -0.54070000
