19
Properties=species:S:1:pos:R:3 gdb_72608=T pbc="F F F"
C       -0.06600000       1.56500000      -0.00180000
C       -0.00140000       0.05660000       0.01500000
C        0.89430000      -0.68230000      -1.02330000
C        1.65670000      -1.42600000       0.11270000
C        0.72910000      -0.80570000       1.16960000
O        1.37310000      -0.28170000       2.28380000
C       -0.58710000      -1.54970000       1.36820000
O       -1.56100000      -0.55080000       1.72330000
C       -1.25910000      -0.74460000       0.33320000
H        0.93680000       1.99990000       0.06820000
H       -0.52510000       1.93450000      -0.92690000
H       -0.65610000       1.93710000       0.84140000
H        0.35150000      -1.32490000      -1.72230000
H        1.52510000      -0.00710000      -1.60580000
H        1.68520000      -2.51820000       0.07030000
H        2.67610000      -1.05680000       0.24300000
H        0.68850000       0.08650000       2.85630000
H       -0.77170000      -2.56340000       1.70910000
H       -2.08290000      -1.02240000      -0.31590000
