19
Properties=species:S:1:pos:R:3 gdb_94773=T pbc="F F F"
C        0.06100000       1.57330000       0.05470000
C        0.04660000       0.04400000       0.00130000
C        0.79210000      -0.55600000      -1.21880000
C        1.27220000      -1.95820000      -0.78080000
C        1.45440000      -1.82470000       0.71680000
O        2.14790000      -0.62790000       1.13200000
C        0.72630000      -0.62080000       1.18890000
C        1.64850000      -2.99480000       1.61070000
O        1.49910000      -4.14010000       1.26390000
H        1.08870000       1.94400000       0.12280000
H       -0.39460000       1.99910000      -0.84480000
H       -0.49400000       1.95070000       0.91990000
H       -0.99500000      -0.30680000       0.00200000
H        0.16200000      -0.58780000      -2.11080000
H        1.65690000       0.07100000      -1.45140000
H        0.51810000      -2.73100000      -0.96330000
H        2.18850000      -2.27330000      -1.28750000
H        0.30200000      -0.54640000       2.18890000
H        1.94680000      -2.71780000       2.64590000
