15
Properties=species:S:1:pos:R:3 gdb_15305=T pbc="F F F"
O       -0.52500000       0.25000000       0.04410000
C        0.00560000       1.33010000       0.08750000
C        1.41550000       1.61870000      -0.38680000
C        1.44770000       2.79410000      -1.34100000
N        1.24170000       4.12010000      -0.74940000
C        2.56280000       3.79790000      -1.33900000
C        3.68550000       3.70100000      -0.44800000
C        4.64310000       3.60730000       0.27290000
H       -0.52320000       2.22020000       0.49480000
H        2.02200000       1.86890000       0.49280000
H        1.82900000       0.71840000      -0.85000000
H        1.00010000       2.60540000      -2.31560000
H        0.72490000       4.72490000      -1.38230000
H        2.79310000       4.24180000      -2.30520000
H        5.48510000       3.53310000       0.91600000
