16
Properties=species:S:1:pos:R:3 gdb_28066=T pbc="F F F"
N        0.03320000       1.39700000      -0.18830000
C       -0.06870000       0.02100000      -0.06540000
C       -1.11290000      -0.85560000      -0.10440000
C       -0.52760000      -2.17010000      -0.00600000
C       -1.24840000      -3.48500000      -0.04320000
C       -1.58720000      -3.90250000      -1.46840000
O       -1.42660000      -5.00980000      -1.90940000
C        0.81300000      -1.98160000       0.08150000
O        1.10680000      -0.63810000       0.04840000
H        0.82940000       1.77790000       0.30670000
H       -0.81670000       1.88130000       0.06370000
H       -2.16040000      -0.60980000      -0.17880000
H       -0.66790000      -4.28910000       0.41610000
H       -2.19870000      -3.40640000       0.50450000
H       -2.00560000      -3.08330000      -2.09620000
H        1.65740000      -2.64180000       0.17980000
