22
Properties=species:S:1:pos:R:3 gdb_115151=T pbc="F F F"
C        0.69070000      -0.32100000      -1.38100000
C       -0.01170000      -0.19390000      -0.02610000
C       -1.54600000      -0.28950000      -0.12410000
C       -2.07080000      -1.72730000      -0.37940000
C       -2.47280000      -2.24470000       1.00970000
C       -2.74540000      -0.97910000       1.82110000
O       -3.31420000      -0.90250000       2.89150000
N       -2.21120000       0.07370000       1.12320000
C       -2.27820000       1.42940000       1.61690000
H        1.77540000      -0.23630000      -1.26890000
H        0.48420000      -1.28320000      -1.86100000
H        0.36520000       0.46740000      -2.06890000
H        0.35050000      -0.96590000       0.66490000
H        0.25440000       0.76950000       0.42410000
H       -1.88040000       0.39190000      -0.91940000
H       -2.94690000      -1.68740000      -1.03280000
H       -1.32310000      -2.35130000      -0.87320000
H       -3.35340000      -2.88940000       1.00990000
H       -1.66670000      -2.80020000       1.50190000
H       -2.87980000       1.41330000       2.52760000
H       -1.28630000       1.83150000       1.85610000
H       -2.74870000       2.09150000       0.87950000
