21
Properties=species:S:1:pos:R:3 gdb_82097=T pbc="F F F"
C       -0.22770000       1.47800000       0.02490000
C        0.02660000      -0.02180000       0.08250000
C        0.98320000      -0.61450000      -0.96410000
O        2.28000000      -0.04820000      -0.72780000
C        1.86910000      -1.16850000       0.06910000
C        0.98770000      -0.62060000       1.20510000
C        1.64570000       0.29470000       2.20050000
C        0.95500000       0.63950000       3.49770000
C        2.16700000      -0.25760000       3.50640000
H        0.71140000       2.02690000      -0.08200000
H       -0.86570000       1.72990000      -0.82950000
H       -0.72860000       1.83010000       0.93190000
H       -0.92020000      -0.57200000       0.08940000
H        0.77370000      -0.95510000      -1.97200000
H        2.51330000      -2.04070000       0.05860000
H        0.47550000      -1.43640000       1.72720000
H        2.24030000       1.08220000       1.74950000
H        1.05530000       1.64780000       3.88390000
H       -0.01090000       0.18480000       3.69460000
H        2.01460000      -1.31290000       3.70950000
H        3.09870000       0.13710000       3.89620000
