18
Properties=species:S:1:pos:R:3 gdb_8110=T pbc="F F F"
C       -0.09730000       1.56110000       0.04950000
C        0.09360000       0.05770000       0.05800000
C        1.37640000      -0.69790000      -0.25320000
C        2.61420000      -0.05110000       0.35340000
O        2.98450000       1.18450000      -0.22550000
C        1.93780000      -0.06430000       1.77140000
C        0.73190000      -0.76810000       1.13530000
O        0.11920000      -1.87710000       1.69820000
H        0.77660000       2.08890000       0.43130000
H       -0.26620000       1.91750000      -0.97240000
H       -0.97060000       1.84590000       0.64840000
H       -0.75000000      -0.48790000      -0.36450000
H        1.39930000      -1.44680000      -1.03560000
H        3.45900000      -0.75220000       0.33360000
H        3.78640000       1.49000000       0.21060000
H        2.46460000      -0.70910000       2.47840000
H        1.75720000       0.91160000       2.23250000
H       -0.63080000      -1.57400000       2.22130000
