21
Properties=species:S:1:pos:R:3 gdb_103884=T pbc="F F F"
C       -0.46800000       1.52020000       0.27490000
C        0.10510000       0.13810000      -0.06410000
C        0.85090000      -0.49230000       1.09810000
O        1.96660000       0.25280000       1.52800000
C        0.10670000      -1.27760000       2.15740000
C        1.06950000      -1.97340000       1.21450000
C        0.58480000      -2.97890000       0.17880000
C        0.46710000      -4.32850000       0.72480000
C        0.38200000      -5.43350000       1.18980000
H        0.32840000       2.22690000       0.53100000
H       -1.01160000       1.93960000      -0.57650000
H       -1.16070000       1.46480000       1.12190000
H       -0.71040000      -0.52070000      -0.37990000
H        0.79190000       0.22590000      -0.91530000
H        1.64140000       1.02370000       2.00530000
H        0.41290000      -1.15460000       3.19020000
H       -0.95600000      -1.45000000       2.01430000
H        2.02870000      -2.22830000       1.65400000
H       -0.38720000      -2.67220000      -0.22520000
H        1.27600000      -2.99360000      -0.67450000
H        0.30210000      -6.41160000       1.59460000
