21
Properties=species:S:1:pos:R:3 gdb_79056=T pbc="F F F"
C       -0.03500000       1.60460000      -0.04080000
C        0.10040000       0.08820000      -0.01280000
C        0.69930000      -0.66890000      -1.19360000
C        2.24900000      -0.76650000      -1.11940000
C        2.99820000       0.15520000      -0.21830000
C        2.42180000       0.18060000       0.99130000
C        2.79130000       1.00370000       2.18290000
C        1.15870000      -0.65600000       0.92560000
C        1.37980000      -1.64530000      -0.26420000
H        0.92210000       2.09350000      -0.23950000
H       -0.73230000       1.90520000      -0.83140000
H       -0.42930000       1.98930000       0.90710000
H       -0.87320000      -0.36370000       0.20580000
H        0.20150000      -0.86070000      -2.13790000
H        2.71440000      -1.17990000      -2.00720000
H        3.85770000       0.73780000      -0.52930000
H        3.72060000       1.55610000       2.01660000
H        2.00780000       1.73170000       2.43070000
H        2.92320000       0.37580000       3.07380000
H        0.77100000      -1.02430000       1.87580000
H        1.37970000      -2.72850000      -0.24560000
