20
Properties=species:S:1:pos:R:3 gdb_119835=T pbc="F F F"
C        0.30890000       1.42740000       0.01590000
C        0.17370000      -0.08220000      -0.02940000
O        0.61430000      -0.59710000       1.24020000
C        0.58740000      -1.92400000       1.37730000
N        0.20290000      -2.74820000       0.48490000
C        0.30890000      -4.09350000       1.05460000
C        1.15240000      -3.98220000       2.35680000
O        2.53440000      -4.22750000       2.12440000
C        1.02160000      -2.49420000       2.70740000
H        1.34860000       1.72110000       0.18570000
H       -0.02070000       1.85830000      -0.93420000
H       -0.30330000       1.85080000       0.81740000
H       -0.86060000      -0.39960000      -0.20010000
H        0.78370000      -0.52810000      -0.82190000
H       -0.69560000      -4.48900000       1.25950000
H        0.78050000      -4.77810000       0.33820000
H        0.77400000      -4.63900000       3.15200000
H        2.62100000      -5.11470000       1.76150000
H        1.96540000      -2.07810000       3.06660000
H        0.25610000      -2.30710000       3.46850000
