21
Properties=species:S:1:pos:R:3 gdb_53598=T pbc="F F F"
C       -0.02110000       1.44340000      -0.15810000
C       -0.00840000      -0.00260000       0.01460000
C        0.01480000      -1.19790000       0.16140000
C        0.00040000      -2.64830000       0.32590000
C       -1.37960000      -3.26380000       0.04700000
C       -1.95350000      -3.23290000      -1.41140000
C       -2.13020000      -4.75610000      -1.35270000
C       -0.80230000      -5.41620000      -1.12390000
C       -1.51310000      -4.79400000       0.04870000
H        0.66260000       1.75740000      -0.95490000
H       -1.02140000       1.80550000      -0.42140000
H        0.28400000       1.95850000       0.75980000
H        0.74850000      -3.10090000      -0.33740000
H        0.30690000      -2.91050000       1.34800000
H       -2.10440000      -2.81790000       0.73350000
H       -2.89100000      -2.67790000      -1.47900000
H       -1.27640000      -2.86500000      -2.18970000
H       -2.98490000      -5.30440000      -1.72950000
H       -0.81030000      -6.50160000      -1.13460000
H        0.10660000      -4.98030000      -1.53290000
H       -1.80590000      -5.38900000       0.90610000
