20
Properties=species:S:1:pos:R:3 gdb_116012=T pbc="F F F"
C        0.03690000       1.32290000      -0.04210000
O       -0.02150000      -0.10850000      -0.02900000
C       -1.25460000      -0.64740000      -0.02500000
N       -2.33320000       0.02280000      -0.02760000
C       -3.44770000      -0.93440000       0.00130000
C       -2.84940000      -2.33370000      -0.31170000
C       -1.34620000      -2.16130000      -0.00730000
C       -0.39660000      -2.85750000      -0.99350000
O        0.96150000      -2.74400000      -0.62530000
H        1.09680000       1.57920000      -0.04460000
H       -0.45920000       1.71750000      -0.93260000
H       -0.45750000       1.73120000       0.84290000
H       -3.91670000      -0.90470000       0.99350000
H       -4.21640000      -0.63470000      -0.71790000
H       -3.31280000      -3.13770000       0.26380000
H       -2.98380000      -2.56950000      -1.37370000
H       -1.09020000      -2.51640000       0.99980000
H       -0.62310000      -3.92890000      -1.01750000
H       -0.58100000      -2.46440000      -2.00810000
H        1.14030000      -1.80230000      -0.51550000
