16
Properties=species:S:1:pos:R:3 gdb_15055=T pbc="F F F"
C       -1.30360000      -0.49290000       0.04490000
O        0.08940000      -0.72530000      -0.02940000
C        0.78370000      -0.46540000       1.17800000
C        0.38430000      -1.36940000       2.26570000
C        0.06330000      -2.12320000       3.14490000
C        2.26250000      -0.61320000       0.85890000
C        3.04250000       0.53380000       0.39030000
O        3.15620000       0.06000000       1.73640000
H       -1.52270000       0.55360000       0.30760000
H       -1.71080000      -0.70320000      -0.94630000
H       -1.78710000      -1.14740000       0.78170000
H        0.61080000       0.57420000       1.50430000
H       -0.21640000      -2.78270000       3.92930000
H        2.56260000      -1.61900000       0.56800000
H        3.91480000       0.37000000      -0.23970000
H        2.55680000       1.50160000       0.27490000
