21
Properties=species:S:1:pos:R:3 gdb_118173=T pbc="F F F"
C       -0.31100000       1.27650000      -0.53800000
O       -0.40320000      -0.12730000      -0.50710000
C       -0.98670000      -0.61510000       0.67980000
C       -1.03700000      -2.13590000       0.60060000
O       -1.56420000      -2.57630000       1.83750000
C       -1.89600000      -2.61870000      -0.58840000
C       -2.02250000      -4.07230000      -0.59120000
C       -2.10400000      -5.27340000      -0.52570000
C       -2.21430000      -6.72570000      -0.49170000
H        0.15350000       1.55380000      -1.48750000
H       -1.30220000       1.75270000      -0.47370000
H        0.30770000       1.66240000       0.28730000
H       -0.39880000      -0.31920000       1.56320000
H       -2.00740000      -0.21880000       0.81430000
H       -0.01120000      -2.50940000       0.45390000
H       -1.73780000      -3.52110000       1.74480000
H       -2.88960000      -2.15760000      -0.51170000
H       -1.44410000      -2.25860000      -1.51850000
H       -3.11000000      -7.04720000       0.05120000
H       -2.27450000      -7.14030000      -1.50400000
H       -1.34750000      -7.18110000      -0.00040000
