16
Properties=species:S:1:pos:R:3 gdb_13549=T pbc="F F F"
C        0.13170000       1.52900000      -0.27390000
C       -0.01030000       0.06600000       0.05650000
O        1.18270000      -0.73390000       0.09340000
C        0.43990000      -0.57660000       1.29980000
C        1.10990000       0.17900000       2.44170000
O        0.12550000       0.72370000       3.31830000
C        2.05430000      -0.68580000       3.15220000
C        2.77990000      -1.42730000       3.75930000
H        0.97970000       1.98780000       0.23780000
H        0.28140000       1.65580000      -1.35100000
H       -0.77830000       2.06920000       0.00690000
H       -0.83870000      -0.42790000      -0.45600000
H       -0.08440000      -1.47650000       1.63000000
H        1.65080000       1.03570000       2.02920000
H       -0.15230000       0.02170000       3.91690000
H        3.44150000      -2.06910000       4.28730000
