25
Properties=species:S:1:pos:R:3 gdb_101099=T pbc="F F F"
C        0.04880000       1.54100000       0.07380000
C       -0.01220000       0.01240000      -0.01040000
C       -1.43740000      -0.57440000      -0.04010000
C       -2.21660000      -0.16260000      -1.29860000
C       -1.40500000      -2.08390000       0.10310000
C       -0.79310000      -2.91300000       1.28080000
C       -1.37840000      -3.96150000       0.29700000
C       -2.63100000      -3.05230000       0.17800000
C       -0.74900000      -3.13430000      -0.85710000
H        1.08450000       1.88600000       0.15570000
H       -0.38560000       2.01970000      -0.80910000
H       -0.49350000       1.90990000       0.95200000
H        0.53190000      -0.32830000      -0.90160000
H        0.52120000      -0.40930000       0.85000000
H       -1.97720000      -0.18290000       0.83630000
H       -3.22350000      -0.59120000      -1.29700000
H       -2.32190000       0.92340000      -1.37150000
H       -1.70700000      -0.51100000      -2.20450000
H        0.29560000      -2.89450000       1.38540000
H       -1.28830000      -2.81850000       2.25240000
H       -1.36300000      -5.04610000       0.40930000
H       -3.26510000      -2.96810000       1.06620000
H       -3.23090000      -3.16090000      -0.73040000
H       -1.20260000      -3.24920000      -1.84600000
H        0.34340000      -3.13060000      -0.91840000
