17
Properties=species:S:1:pos:R:3 gdb_83857=T pbc="F F F"
O        0.08920000       1.37680000       0.01090000
C       -0.02050000      -0.00670000      -0.01740000
C       -1.34470000      -0.70030000       0.07520000
C       -2.59590000       0.16870000       0.10060000
C       -3.04920000       0.51170000      -1.31300000
O       -1.95540000       0.98120000      -2.13500000
C       -0.95930000       0.06380000      -2.39680000
O       -0.42490000       0.05430000      -3.46890000
C       -0.55300000      -0.76790000      -1.23730000
H       -0.50690000       1.76350000      -0.64340000
H        0.83150000      -0.45570000       0.48090000
H       -1.37900000      -1.62020000       0.64910000
H       -3.40930000      -0.35000000       0.61640000
H       -2.39370000       1.08910000       0.66080000
H       -3.49680000      -0.36190000      -1.80200000
H       -3.78180000       1.32130000      -1.32600000
H       -0.04010000      -1.68060000      -1.51290000
