18
Properties=species:S:1:pos:R:3 gdb_60665=T pbc="F F F"
C       -0.00670000       1.54520000      -0.16580000
C        0.07430000       0.01350000      -0.03890000
N        0.77630000      -0.42260000       1.15450000
H       -0.80520000      -1.19260000       1.64130000
C        2.05280000      -0.53470000       1.17280000
N        2.93620000      -0.14040000       0.18290000
N        2.68380000      -1.10220000       2.27090000
C       -1.35970000      -0.56150000       0.00020000
O       -2.14910000      -0.39830000      -0.89290000
O       -1.63810000      -1.24070000       1.11660000
H        0.98620000       1.98180000      -0.30810000
H       -0.64110000       1.81060000      -1.01420000
H       -0.43620000       1.97380000       0.74450000
H        0.51780000      -0.39490000      -0.96280000
H        2.52540000       0.07590000      -0.71190000
H        3.77480000      -0.69770000       0.10820000
H        2.05190000      -1.22180000       3.04960000
H        3.55010000      -0.65650000       2.54040000
