13
Properties=species:S:1:pos:R:3 gdb_21725=T pbc="F F F"
N        2.95600000      -0.90390000      -0.78030000
H        2.65920000      -1.91740000      -0.86560000
H        4.01340000      -0.97730000      -0.76580000
H        2.76760000      -0.53090000      -1.75370000
C        1.54680000       0.46390000       0.88540000
C        0.24840000       0.44900000       0.48700000
N       -0.33610000       1.45310000      -0.45880000
N       -1.61650000       1.14550000      -0.66590000
C       -1.92840000      -0.14020000       0.18030000
O       -2.99870000      -0.76030000       0.27540000
O       -0.70810000      -0.52430000       0.87740000
H        1.93470000      -0.25740000       1.61440000
H        2.19770000       1.28570000       0.56550000
