14
Properties=species:S:1:pos:R:3 gdb_70975=T pbc="F F F"
O       -0.10950000       1.35970000      -0.04420000
C        0.05730000      -0.00130000      -0.04950000
C        0.98180000      -0.84440000      -0.93330000
C        0.10990000      -2.03450000      -0.43450000
O        0.43550000      -2.14240000       0.98300000
C       -0.28390000      -0.91790000       1.14780000
C       -1.06520000      -1.02140000      -0.12180000
C        0.02490000      -3.28590000      -1.14320000
N       -0.05510000      -4.27200000      -1.74000000
H        0.55760000       1.75390000       0.52960000
H        0.81260000      -0.63740000      -1.99170000
H        2.04850000      -0.91380000      -0.70280000
H       -0.54870000      -0.58150000       2.14080000
H       -2.11190000      -0.98610000      -0.38650000
