14
Properties=species:S:1:pos:R:3 gdb_21299=T pbc="F F F"
C       -0.04230000       1.39910000       0.02620000
O       -0.00280000      -0.03000000       0.00860000
C       -1.19020000      -0.64150000      -0.00800000
N       -2.32760000       0.01780000      -0.00450000
O       -3.31280000      -1.00310000      -0.02640000
C       -2.70410000      -2.19730000      -0.04220000
N       -3.53550000      -3.28700000      -0.12720000
C       -1.34720000      -2.05440000      -0.02920000
H        0.99810000       1.72520000       0.03630000
H       -0.55430000       1.78350000      -0.86120000
H       -0.56460000       1.76150000       0.91690000
H       -4.47430000      -3.11300000       0.20350000
H       -3.14670000      -4.14520000       0.23290000
H       -0.58160000      -2.80960000      -0.04170000
