19
Properties=species:S:1:pos:R:3 gdb_41025=T pbc="F F F"
C        0.04140000       1.54950000       0.28870000
C        1.51610000       1.64110000      -0.22030000
C        1.42730000       0.18290000      -0.68000000
C       -0.06100000       0.05070000      -0.10400000
C        0.46260000      -0.91970000       1.03370000
C        1.76110000      -1.00500000       0.22490000
C        3.26060000      -0.94120000      -0.15290000
C        2.35390000      -0.78480000      -1.44800000
O        1.53750000      -1.89660000      -0.95640000
H       -0.11460000       1.76490000       1.34930000
H       -0.63590000       2.17960000      -0.29240000
H        1.63630000       2.35350000      -1.04130000
H        2.27990000       1.86790000       0.53210000
H       -0.93830000      -0.27410000      -0.66090000
H        0.54950000      -0.42260000       2.00350000
H       -0.04830000      -1.87680000       1.15700000
H        3.82490000      -0.07150000       0.19390000
H        3.83780000      -1.86710000      -0.11140000
H        2.67730000      -0.81760000      -2.49280000
