21
Properties=species:S:1:pos:R:3 gdb_113378=T pbc="F F F"
C       -1.14350000       0.58190000       2.44070000
C       -1.75080000      -0.82360000       2.56150000
C       -2.64200000      -1.20890000       1.39200000
C       -3.94130000      -0.42350000       1.23090000
O       -3.71220000       0.86320000       0.68410000
O       -1.98110000      -1.36710000       0.11270000
C       -2.57540000      -2.52690000       0.72780000
C       -1.62220000      -3.65020000       1.05350000
O       -1.25110000      -4.34690000      -0.12560000
H       -0.51030000       0.79660000       3.30670000
H       -0.52230000       0.64960000       1.54220000
H       -1.91530000       1.35020000       2.36930000
H       -0.94280000      -1.55190000       2.66670000
H       -2.35200000      -0.89440000       3.47710000
H       -4.63810000      -0.99690000       0.60160000
H       -4.41900000      -0.26940000       2.20390000
H       -3.19340000       0.72100000      -0.11710000
H       -3.47590000      -2.87310000       0.21610000
H       -0.74030000      -3.27340000       1.58650000
H       -2.12050000      -4.38320000       1.69750000
H       -0.83260000      -3.70410000      -0.70940000
