18
Properties=species:S:1:pos:R:3 gdb_36809=T pbc="F F F"
N       -0.05290000      -1.08180000      -0.06470000
C        0.01450000       0.06840000      -0.13460000
C        0.06000000       1.53070000      -0.23200000
O        1.35980000       1.97410000       0.06010000
C        1.47800000       3.38640000      -0.00860000
C        2.92740000       3.75330000       0.28530000
C        3.13670000       5.24730000       0.26530000
C        4.34570000       5.86200000      -0.29410000
O        3.11670000       5.87380000      -1.02220000
H       -0.25240000       1.82500000      -1.24760000
H       -0.68110000       1.95110000       0.46810000
H        1.19240000       3.74900000      -1.00810000
H        0.79950000       3.85880000       0.72200000
H        3.20610000       3.35380000       1.26750000
H        3.57310000       3.27840000      -0.46000000
H        2.59590000       5.80780000       1.03080000
H        4.68150000       6.83040000       0.07350000
H        5.12720000       5.22510000      -0.70640000
