21
Properties=species:S:1:pos:R:3 gdb_95378=T pbc="F F F"
C       -0.24460000       1.64300000      -0.00730000
C        0.29150000       0.22730000      -0.12570000
O        1.40360000       0.22830000      -1.01920000
C        2.01370000      -1.04360000      -0.86900000
C        1.99920000      -1.33610000       0.63940000
O        3.17420000      -0.87140000       1.29540000
C        2.92960000       0.43370000       1.80800000
C        1.46100000       0.41020000       2.23780000
C        0.80130000      -0.47780000       1.16260000
H        0.53070000       2.33400000       0.33370000
H       -0.59700000       1.98990000      -0.98250000
H       -1.08340000       1.68110000       0.69440000
H       -0.50090000      -0.41340000      -0.55390000
H        1.44210000      -1.81470000      -1.41420000
H        3.02830000      -0.99910000      -1.27010000
H        1.91580000      -2.40670000       0.84760000
H        3.62950000       0.60490000       2.63100000
H        3.10310000       1.19740000       1.03600000
H        1.37060000      -0.07470000       3.21460000
H        1.01980000       1.40570000       2.31830000
H        0.00680000      -1.09090000       1.59200000
