17
Properties=species:S:1:pos:R:3 gdb_123914=T pbc="F F F"
C       -0.02280000       1.53230000      -0.00530000
C        1.41120000       2.09260000       0.00090000
N        2.20890000       1.69250000       1.16920000
C        1.95090000       0.39440000       1.62650000
C        2.53460000      -0.37660000       2.58390000
O        1.91970000      -1.57770000       2.64210000
N        0.91040000      -1.62340000       1.68900000
C        0.93090000      -0.45470000       1.09730000
C       -0.00460000      -0.00940000       0.01530000
H       -0.56470000       1.90860000       0.87100000
H       -0.55220000       1.89170000      -0.89340000
H        1.92870000       1.74910000      -0.90560000
H        1.40000000       3.18490000      -0.03810000
H        2.19580000       2.38370000       1.90610000
H        3.33860000      -0.22090000       3.28490000
H       -1.00350000      -0.42410000       0.17550000
H        0.34230000      -0.38580000      -0.95560000
