19
Properties=species:S:1:pos:R:3 gdb_82271=T pbc="F F F"
C       -0.18130000       1.58930000      -0.03310000
C        0.01290000       0.06530000      -0.02090000
C        0.80680000      -0.48630000      -1.21350000
C        2.24710000      -0.08790000      -1.35750000
C        1.89910000      -1.40460000      -0.67290000
C        1.77560000      -1.31390000       0.79810000
C        0.78790000      -0.47870000       1.17500000
C        0.46880000      -0.20160000       2.57280000
O       -0.43780000       0.50900000       2.95640000
H        0.78040000       2.11180000      -0.05200000
H       -0.74620000       1.89390000      -0.91980000
H       -0.72610000       1.90650000       0.85780000
H       -0.98610000      -0.39260000      -0.01410000
H        0.26690000      -0.74980000      -2.11540000
H        2.68090000      -0.15630000      -2.34940000
H        2.64980000       0.70840000      -0.74090000
H        2.19150000      -2.33470000      -1.14580000
H        2.42060000      -1.85100000       1.48690000
H        1.13050000      -0.72250000       3.30200000
