20
Properties=species:S:1:pos:R:3 gdb_109113=T pbc="F F F"
C       -0.05110000       1.53660000       0.07810000
C        0.02730000       0.01480000      -0.04160000
C        0.73290000      -0.44760000      -1.28140000
N        1.23130000       0.32840000      -2.17180000
C        1.81590000      -0.54360000      -3.19250000
C        1.56560000      -1.97770000      -2.73110000
N        1.85090000      -3.11780000      -3.21970000
N        0.88360000      -1.81540000      -1.52920000
C        0.42870000      -2.91920000      -0.71120000
H        0.94820000       1.97730000       0.09350000
H       -0.58200000       1.96670000      -0.77400000
H       -0.57370000       1.81820000       0.99650000
H        0.53910000      -0.41400000       0.83070000
H       -0.97960000      -0.42450000      -0.02970000
H        1.35600000      -0.35750000      -4.17050000
H        2.88890000      -0.34590000      -3.30260000
H        2.34940000      -3.01710000      -4.10180000
H        0.72240000      -3.83670000      -1.22360000
H        0.89060000      -2.90150000       0.28180000
H       -0.66020000      -2.90970000      -0.59200000
