19
Properties=species:S:1:pos:R:3 gdb_14098=T pbc="F F F"
C       -0.14710000       1.47150000      -0.04460000
C       -0.01160000      -0.02660000       0.07040000
N        1.33980000      -0.58960000      -0.14000000
C        0.72170000      -0.69420000       1.17430000
C        1.23650000      -0.10190000       2.49060000
C        0.34970000      -1.14330000       3.23720000
C        0.23750000      -1.95180000       1.91100000
O       -0.97070000      -2.56630000       1.54010000
H        0.72740000       1.97120000       0.37960000
H       -0.22960000       1.77360000      -1.09410000
H       -1.04100000       1.82850000       0.47950000
H       -0.84030000      -0.60010000      -0.34580000
H        1.27990000      -1.48340000      -0.62440000
H        2.30610000      -0.28220000       2.62870000
H        1.03170000       0.95350000       2.68170000
H        0.77530000      -1.65440000       4.10250000
H       -0.62060000      -0.72110000       3.51840000
H        0.99280000      -2.74510000       1.87040000
H       -1.66630000      -1.90200000       1.59720000
