15
Properties=species:S:1:pos:R:3 gdb_103272=T pbc="F F F"
O        0.01940000       1.36700000      -0.04860000
C        0.04960000      -0.04630000       0.15090000
C       -1.36170000      -0.58520000       0.03900000
O       -2.27590000       0.13640000       0.79790000
C       -1.92860000      -1.19350000      -1.20630000
O       -0.89540000      -1.90890000      -1.92870000
C       -0.75220000      -2.80440000      -0.86270000
O       -0.07040000      -3.77380000      -0.82960000
C       -1.73220000      -2.07770000       0.01310000
H       -0.05850000       1.53100000      -0.99490000
H        0.72800000      -0.54620000      -0.54630000
H        0.41660000      -0.19690000       1.17030000
H       -1.95610000       1.05050000       0.76710000
H       -2.82640000      -0.90910000      -1.73580000
H       -2.42650000      -2.48960000       0.73010000
