15
Properties=species:S:1:pos:R:3 gdb_128402=T pbc="F F F"
C        0.01410000       1.48430000       0.10190000
N       -0.06490000       0.04860000      -0.10290000
C       -1.23400000      -0.61420000      -0.13950000
N       -2.36180000      -0.00840000       0.01090000
C       -3.49100000      -0.78120000       0.09890000
N       -3.53220000      -1.99280000       0.62160000
O       -4.88630000      -2.35230000       0.50600000
C       -5.49480000      -1.30720000      -0.05590000
N       -4.72300000      -0.30930000      -0.32900000
H        1.06200000       1.76870000       0.21030000
H       -0.42630000       2.03230000      -0.73830000
H       -0.53360000       1.76340000       1.00560000
H        0.77120000      -0.45730000      -0.33570000
H       -1.14620000      -1.69210000      -0.30700000
H       -6.55890000      -1.39320000      -0.22380000
