14
Properties=species:S:1:pos:R:3 gdb_4585=T pbc="F F F"
N       -0.01730000       1.41980000       0.12880000
C        0.00140000       0.01890000       0.04730000
C       -1.16430000      -0.75180000       0.04140000
N       -1.16290000      -2.08070000       0.03450000
C        0.03850000      -2.67520000       0.03780000
N        0.05790000      -4.05050000       0.10110000
N        1.22290000      -2.04780000       0.01820000
C        1.18780000      -0.71940000       0.02540000
H        0.80120000       1.85880000      -0.27170000
H       -0.85380000       1.83590000      -0.25860000
H       -2.14100000      -0.26760000       0.03700000
H       -0.79240000      -4.50450000      -0.19120000
H        0.91640000      -4.48100000      -0.20290000
H        2.15060000      -0.20840000       0.00780000
