19
Properties=species:S:1:pos:R:3 gdb_103783=T pbc="F F F"
O       -0.13520000       1.41950000      -0.35480000
C        0.00350000       0.07040000       0.09030000
C       -1.37810000      -0.52960000       0.05990000
O       -2.29440000       0.17650000       0.84610000
C       -1.88900000      -1.19910000      -1.20280000
C       -1.58150000      -2.00450000       0.03040000
C       -0.58600000      -3.13910000       0.25620000
O       -1.51630000      -3.80840000       1.13170000
C       -2.53110000      -2.79640000       0.92070000
H        0.63970000       1.91470000      -0.07530000
H        0.68830000      -0.49720000      -0.55650000
H        0.39330000       0.03790000       1.11820000
H       -2.19680000       1.10200000       0.58760000
H       -2.93480000      -1.04480000      -1.44790000
H       -1.22140000      -1.28290000      -2.05550000
H       -0.35050000      -3.74050000      -0.63260000
H        0.34980000      -2.88070000       0.77030000
H       -2.82750000      -2.30290000       1.85290000
H       -3.42040000      -3.20600000       0.42480000
