17
Properties=species:S:1:pos:R:3 gdb_35732=T pbc="F F F"
C        0.69810000      -0.77890000       0.70660000
C        0.21840000       0.25000000       0.31240000
C       -0.35970000       1.51010000      -0.16700000
C       -1.05520000       2.31620000       0.95260000
C        0.10070000       3.13350000       1.51750000
C       -0.04350000       4.18080000       2.53040000
O        0.50950000       2.90240000       2.86470000
C        1.19450000       3.10560000       0.44510000
O        0.63960000       2.40630000      -0.66370000
H        1.12190000      -1.68900000       1.05340000
H       -1.03050000       1.30490000      -1.00640000
H       -1.80760000       2.97140000       0.50360000
H       -1.52420000       1.69790000       1.71840000
H        0.65780000       5.01480000       2.55250000
H       -1.02440000       4.39340000       2.95540000
H        1.49190000       4.09750000       0.09340000
H        2.07570000       2.58960000       0.85020000
