20
Properties=species:S:1:pos:R:3 gdb_74354=T pbc="F F F"
C        0.05160000       1.63960000       0.41040000
C        0.00960000       0.16760000       0.15010000
C       -0.44210000      -0.45050000      -0.94290000
C       -0.27340000      -1.95100000      -0.88100000
C        0.08460000      -2.19590000       0.61200000
C        0.56920000      -0.82910000       1.14650000
N       -1.44850000      -2.68820000      -1.32880000
C       -1.41400000      -3.66620000      -2.27240000
O       -0.41990000      -4.05570000      -2.84890000
H        1.08260000       1.98360000       0.56330000
H       -0.37750000       2.21140000      -0.41660000
H       -0.49750000       1.89380000       1.32610000
H       -0.84760000       0.04110000      -1.82100000
H        0.52940000      -2.28930000      -1.54480000
H       -0.82470000      -2.50030000       1.14160000
H        0.81500000      -2.99810000       0.73880000
H        1.66650000      -0.76710000       1.16400000
H        0.23850000      -0.62980000       2.17300000
H       -2.34120000      -2.44740000      -0.92540000
H       -2.42350000      -4.08260000      -2.46490000
