19
Properties=species:S:1:pos:R:3 gdb_120317=T pbc="F F F"
O       -0.06030000       1.39830000       0.07690000
C       -0.06230000      -0.01580000       0.19870000
C       -1.44210000      -0.51630000      -0.21560000
C       -1.54370000      -2.02410000      -0.15020000
C       -1.93270000      -2.79880000       1.09220000
O       -2.92020000      -2.08520000       1.84700000
C       -3.86650000      -2.16690000       0.74800000
C       -2.81690000      -2.82750000      -0.14420000
O       -3.06600000      -3.75540000      -1.13160000
H        0.79300000       1.72500000       0.37590000
H        0.70950000      -0.47160000      -0.44400000
H        0.14640000      -0.33080000       1.23330000
H       -2.18240000      -0.05960000       0.44750000
H       -1.65250000      -0.16400000      -1.23220000
H       -0.78480000      -2.56550000      -0.71560000
H       -1.32010000      -3.52490000       1.61380000
H       -4.69390000      -2.84170000       1.00540000
H       -4.26480000      -1.18990000       0.45330000
H       -3.57490000      -4.48010000      -0.74960000
