24
Properties=species:S:1:pos:R:3 gdb_58036=T pbc="F F F"
C        0.44980000      -0.39240000       1.32230000
C       -0.05560000       0.10070000      -0.03970000
C       -0.04590000       1.63380000      -0.11230000
C        0.73130000      -0.51530000      -1.23630000
C        2.13220000      -0.07570000      -1.19020000
N        3.23530000       0.26700000      -1.13250000
C        0.66380000      -2.06670000      -1.37120000
C       -0.78570000      -2.56950000      -1.39600000
C        1.41310000      -2.53600000      -2.62690000
H        0.35650000      -1.47700000       1.43020000
H        1.50230000      -0.12800000       1.46960000
H       -0.12670000       0.07020000       2.12920000
H       -1.09320000      -0.22800000      -0.16430000
H        0.96730000       2.03090000       0.00790000
H       -0.43560000       1.99170000      -1.07140000
H       -0.66870000       2.05800000       0.68110000
H        0.30250000      -0.09210000      -2.15620000
H        1.16720000      -2.49860000      -0.49790000
H       -0.80290000      -3.64850000      -1.57730000
H       -1.31180000      -2.38730000      -0.45560000
H       -1.35570000      -2.09110000      -2.20150000
H        2.45590000      -2.20820000      -2.62360000
H        1.40260000      -3.62820000      -2.69180000
H        0.93840000      -2.14510000      -3.53500000
