18
Properties=species:S:1:pos:R:3 gdb_34312=T pbc="F F F"
N        0.05680000      -1.10160000       0.05800000
C        0.03020000       0.05300000       0.01890000
C       -0.03260000       1.50860000       0.00730000
C       -0.84560000       2.11870000       1.19070000
N       -1.07480000       3.51830000       0.74070000
C       -0.47460000       3.58320000      -0.61240000
C        1.05060000       3.55580000      -0.42760000
N        1.30720000       2.12980000      -0.06390000
C       -0.72350000       2.17810000      -1.20210000
H       -1.78070000       1.57630000       1.37020000
H       -0.25470000       2.08390000       2.11270000
H       -2.07140000       3.69010000       0.67080000
H       -0.85070000       4.43720000      -1.17520000
H        1.58250000       3.81280000      -1.35100000
H        1.35650000       4.24960000       0.36010000
H        1.78560000       2.04980000       0.82640000
H       -0.20210000       1.96810000      -2.13740000
H       -1.78100000       1.92030000      -1.28750000
