21
Properties=species:S:1:pos:R:3 gdb_93802=T pbc="F F F"
C       -0.15280000       1.57690000       0.01200000
C       -0.03290000       0.05190000      -0.03630000
C        0.75780000      -0.42190000      -1.25740000
O        0.80430000      -1.83710000      -1.33390000
C        1.44510000      -2.49270000      -0.24290000
C        2.97810000      -2.41700000      -0.32210000
C        0.95170000      -1.99670000       1.12320000
O        0.86800000      -2.75290000       2.06240000
C        0.63620000      -0.51290000       1.22990000
H        0.83550000       2.04900000       0.06500000
H       -0.66230000       1.96400000      -0.87650000
H       -0.72060000       1.89880000       0.89060000
H       -1.03800000      -0.38240000      -0.11780000
H        0.27690000      -0.09500000      -2.18440000
H        1.77080000       0.01470000      -1.24050000
H        1.14140000      -3.54020000      -0.32070000
H        3.34890000      -1.39510000      -0.19820000
H        3.42150000      -3.03620000       0.46260000
H        3.30960000      -2.78680000      -1.29610000
H        1.59640000       0.00540000       1.38090000
H        0.04170000      -0.34920000       2.13310000
