21
Properties=species:S:1:pos:R:3 gdb_39060=T pbc="F F F"
C        0.05170000       1.48660000       0.22430000
C        1.29790000       0.66940000      -0.05830000
C        2.32520000       0.36770000       1.02500000
C        1.90120000      -0.66400000       2.03990000
C        0.73630000      -1.31320000       2.04560000
C       -0.34550000      -1.05730000       1.05030000
C       -0.59420000      -2.05500000      -0.13770000
C       -0.70330000      -0.83380000      -1.09970000
C       -0.05530000       0.01340000      -0.00230000
H       -0.10300000       1.85150000       1.23660000
H       -0.29440000       2.16250000      -0.55190000
H        1.71760000       0.81010000      -1.05100000
H        3.24720000       0.00800000       0.54670000
H        2.62290000       1.29010000       1.54570000
H        2.63640000      -0.88610000       2.81080000
H        0.54060000      -2.05560000       2.81680000
H       -1.29640000      -0.86500000       1.56560000
H        0.29260000      -2.66020000      -0.34070000
H       -1.46390000      -2.71070000      -0.05940000
H       -0.18000000      -0.90170000      -2.05750000
H       -1.74400000      -0.55030000      -1.28940000
