19
Properties=species:S:1:pos:R:3 gdb_93553=T pbc="F F F"
O       -0.17070000       1.51510000      -0.16890000
C        0.00880000       0.11280000      -0.01370000
C       -1.39610000      -0.49330000       0.10720000
C       -1.42670000      -1.92440000       0.68200000
C       -0.65930000      -2.99060000      -0.09390000
O       -1.21360000      -3.95220000      -0.57160000
C        0.85690000      -2.80300000      -0.22240000
C        1.17270000      -1.74620000      -1.26160000
C        0.79140000      -0.47410000      -1.16910000
H        0.69880000       1.91930000      -0.25340000
H        0.54790000      -0.09250000       0.93050000
H       -1.97750000       0.15560000       0.77070000
H       -1.88030000      -0.46840000      -0.87450000
H       -1.01040000      -1.90040000       1.69970000
H       -2.46140000      -2.26780000       0.75570000
H        1.26770000      -2.50980000       0.75350000
H        1.28750000      -3.76530000      -0.50290000
H        1.70510000      -2.08160000      -2.14630000
H        1.01300000       0.22030000      -1.97660000
