13
Properties=species:S:1:pos:R:3 gdb_2511=T pbc="F F F"
O        0.08350000       1.39120000      -0.01350000
C        0.05160000      -0.01250000       0.03550000
C       -1.41080000      -0.55910000       0.01350000
C       -2.08990000      -0.08970000      -1.19810000
C       -2.59060000       0.34780000      -2.19950000
C       -1.42160000      -2.01690000       0.13170000
C       -1.38020000      -3.21190000       0.24250000
H       -0.34270000       1.66010000      -0.83650000
H        0.60830000      -0.47720000      -0.79030000
H        0.51870000      -0.31210000       0.97690000
H       -1.92050000      -0.12350000       0.88410000
H       -3.06260000       0.70890000      -3.08000000
H       -1.36040000      -4.26930000       0.33900000
