20
Properties=species:S:1:pos:R:3 gdb_40814=T pbc="F F F"
C        0.25150000       1.55710000       0.08030000
N        1.19790000       0.46000000      -0.19690000
C       -0.21490000       0.15190000       0.06570000
C       -0.48130000      -0.61060000       1.34750000
O       -1.83890000      -0.37160000       1.68860000
C       -2.33700000      -1.26490000       2.67080000
C       -2.36430000      -2.70310000       2.14940000
C       -1.03770000      -3.03230000       1.51680000
C       -0.17290000      -2.07730000       1.18380000
H        0.40650000       2.06210000       1.02970000
H       -0.05130000       2.20750000      -0.73570000
H        1.38850000       0.40640000      -1.19340000
H       -0.83860000      -0.16130000      -0.76900000
H        0.18430000      -0.19050000       2.12440000
H       -1.71710000      -1.21410000       3.58100000
H       -3.33930000      -0.90860000       2.92500000
H       -2.57860000      -3.39300000       2.97570000
H       -3.17970000      -2.82930000       1.42390000
H       -0.79290000      -4.07880000       1.35420000
H        0.80400000      -2.30640000       0.76790000
