16
Properties=species:S:1:pos:R:3 gdb_14119=T pbc="F F F"
N       -0.14870000       1.29600000       0.24680000
C        0.04980000      -0.02810000      -0.02920000
O        1.13440000      -0.53140000      -0.25240000
C       -1.21350000      -0.82860000      -0.06670000
C       -2.38960000      -0.45850000      -0.89140000
N       -2.51390000      -0.33820000       0.56660000
C       -2.72250000      -1.74630000       1.07410000
C       -1.36810000      -2.23790000       0.49390000
H        0.67060000       1.86110000       0.40360000
H       -1.01090000       1.56150000       0.69920000
H       -2.36190000       0.49930000      -1.40050000
H       -2.94140000      -1.24070000      -1.41030000
H       -2.76350000      -1.74370000       2.16440000
H       -3.63290000      -2.21040000       0.68190000
H       -1.38600000      -3.05060000      -0.23610000
H       -0.62970000      -2.47060000       1.26160000
