15
Properties=species:S:1:pos:R:3 gdb_49799=T pbc="F F F"
N        0.14050000       1.31670000      -0.17890000
C        0.00310000       0.07740000       0.02060000
N       -1.22000000      -0.61610000      -0.03830000
C       -1.16690000      -2.02270000      -0.00910000
C       -2.21990000      -2.76600000      -0.32330000
C       -3.46560000      -2.05940000      -0.74650000
O       -3.55410000      -0.75240000      -0.15450000
C       -2.47560000       0.04550000       0.01760000
O       -2.61220000       1.20500000       0.26310000
H        1.12230000       1.57110000      -0.07920000
H        0.81840000      -0.62310000       0.23970000
H       -0.21050000      -2.43350000       0.29280000
H       -2.18640000      -3.84600000      -0.28020000
H       -3.52320000      -1.95200000      -1.84030000
H       -4.36870000      -2.58110000      -0.41930000
