19
Properties=species:S:1:pos:R:3 gdb_115218=T pbc="F F F"
C        0.05720000       1.56370000      -0.02950000
C        0.06230000       0.03420000      -0.00480000
C        0.70360000      -0.53510000       1.24760000
O       -0.05300000      -0.12850000       2.36510000
C        0.51580000      -0.54480000       3.59230000
C        0.97540000      -2.00060000       3.59200000
O        1.10260000      -2.63400000       4.61070000
C        1.36760000      -2.56600000       2.22930000
O        0.71520000      -1.93940000       1.14050000
H        1.07570000       1.96680000       0.00290000
H       -0.41650000       1.93330000      -0.94300000
H       -0.49030000       1.96390000       0.82740000
H       -0.95850000      -0.35900000      -0.05550000
H        0.60710000      -0.36940000      -0.86410000
H        1.74510000      -0.17100000       1.36590000
H        1.39880000       0.06970000       3.84660000
H       -0.22760000      -0.40040000       4.37930000
H        2.46490000      -2.46030000       2.14480000
H        1.13360000      -3.63240000       2.19920000
