19
Properties=species:S:1:pos:R:3 gdb_82025=T pbc="F F F"
C       -0.02250000       1.69970000      -0.33460000
C        0.00380000       0.18370000      -0.15270000
C       -1.41280000      -0.33440000       0.00190000
O       -1.79290000      -1.12250000       0.83080000
C        0.73950000      -0.66000000      -1.22460000
C        2.20750000      -0.34300000      -1.24040000
C        1.67390000      -1.24400000      -0.16240000
C        0.98480000      -0.43160000       0.92310000
O        1.84540000       0.45180000       1.60900000
H        0.97830000       2.09390000      -0.51650000
H       -0.65910000       1.98110000      -1.18130000
H       -0.41570000       2.19720000       0.55930000
H       -2.12320000       0.07570000      -0.75470000
H        0.25160000      -1.17370000      -2.04480000
H        2.77180000      -0.84540000      -2.01960000
H        2.57750000       0.64620000      -0.99240000
H        2.01450000      -2.26510000      -0.04650000
H        0.41650000      -1.06460000       1.61100000
H        1.37900000       0.79200000       2.37860000
