20
Properties=species:S:1:pos:R:3 gdb_86780=T pbc="F F F"
C       -0.19010000       1.59140000      -0.18240000
C       -0.03840000       0.07550000      -0.06070000
C        0.79240000      -0.57500000      -1.20120000
O        0.90570000       0.22120000      -2.35370000
C        1.97530000      -0.61220000      -0.19810000
N        0.99110000      -0.43910000       0.88270000
C        1.34930000       0.30940000       2.07380000
C        2.35690000      -0.39460000       2.86540000
C        3.20170000      -0.95970000       3.50600000
H        0.76420000       2.08950000      -0.37240000
H       -0.85320000       1.82630000      -1.01960000
H       -0.63060000       2.01350000       0.72650000
H       -1.02290000      -0.37470000       0.11670000
H        0.42930000      -1.58180000      -1.44040000
H        1.42710000      -0.25830000      -3.00450000
H        2.58100000      -1.52140000      -0.12790000
H        2.63990000       0.25450000      -0.34850000
H        1.72930000       1.32480000       1.85040000
H        0.44320000       0.44470000       2.67910000
H        3.94070000      -1.46280000       4.07880000
