16
Properties=species:S:1:pos:R:3 gdb_78792=T pbc="F F F"
C        0.03290000       1.63700000      -0.08860000
C        0.03180000       0.11650000      -0.03510000
C        0.76890000      -0.72390000      -1.09200000
C        1.19490000      -1.74220000      -0.13340000
N        2.24030000      -0.81040000      -0.75520000
C        2.34200000      -0.21290000       0.56730000
O        3.30740000       0.16760000       1.15890000
C        0.94060000      -0.60350000       0.99240000
O        0.57160000      -0.68400000       2.30380000
H        1.04290000       2.03560000      -0.22840000
H       -0.58890000       1.99770000      -0.91400000
H       -0.36900000       2.05340000       0.84030000
H       -0.98570000      -0.27710000       0.06230000
H        0.54190000      -0.82620000      -2.14510000
H        1.32980000      -2.81320000      -0.12680000
H        1.37490000      -0.69810000       2.84130000
