17
Properties=species:S:1:pos:R:3 gdb_34556=T pbc="F F F"
C        0.09750000      -1.16890000       0.04170000
C       -0.01560000       0.03080000      -0.00240000
C       -0.07840000       1.43510000      -0.06290000
C       -1.13380000       2.26550000      -0.03470000
C       -0.54720000       3.66660000       0.02690000
C        0.01180000       3.86310000       1.47620000
C        1.24300000       2.91120000       1.43900000
C        1.14530000       2.36960000      -0.02240000
O        0.66410000       3.51530000      -0.72460000
H        0.17720000      -2.22680000       0.08140000
H       -2.18010000       2.00790000       0.05020000
H       -1.14980000       4.48250000      -0.36940000
H        0.31570000       4.90250000       1.62040000
H       -0.71810000       3.60570000       2.24620000
H        2.17580000       3.46420000       1.56870000
H        1.20720000       2.11410000       2.18420000
H        2.06470000       1.99170000      -0.46530000
