17
Properties=species:S:1:pos:R:3 gdb_37554=T pbc="F F F"
C       -0.07700000       1.66540000       0.02300000
C        1.42510000       1.33170000      -0.05500000
C        1.27220000       0.11920000       0.96810000
C       -0.05060000       0.12590000       0.07900000
C        1.18660000       0.01410000      -0.92070000
O        1.39340000      -0.38380000      -2.22310000
C        2.32020000      -1.51020000      -2.15260000
C        2.64010000      -1.73640000      -0.66390000
C        1.95330000      -0.82190000       0.00120000
H       -0.41040000       2.17450000       0.93260000
H       -0.53020000       2.12190000      -0.86050000
H        2.29240000       1.99040000      -0.10170000
H        1.30830000       0.19540000       2.05160000
H       -0.86570000      -0.59010000       0.18500000
H        1.83980000      -2.38030000      -2.62080000
H        3.21080000      -1.26010000      -2.74530000
H        3.30870000      -2.51730000      -0.32780000
