15
Properties=species:S:1:pos:R:3 gdb_49896=T pbc="F F F"
O        0.83190000      -0.05760000      -0.42440000
C        0.35520000       1.02300000      -0.20520000
C        1.19200000       2.25840000       0.14400000
O        2.46890000       1.87480000       0.63240000
C        3.47270000       1.54110000      -0.22460000
O        4.49470000       1.09750000       0.21270000
C        3.23960000       1.81000000      -1.70710000
C        2.23520000       2.89680000      -1.96720000
C        1.25540000       3.11920000      -1.09660000
H       -0.73570000       1.22060000      -0.29230000
H        0.70830000       2.79220000       0.96920000
H        4.21440000       2.02570000      -2.14950000
H        2.89940000       0.86410000      -2.15170000
H        2.33580000       3.48940000      -2.87100000
H        0.49320000       3.87600000      -1.24060000
