19
Properties=species:S:1:pos:R:3 gdb_9308=T pbc="F F F"
C       -0.09690000       1.42650000       0.24880000
O       -0.06910000       0.03250000      -0.05170000
C       -1.22920000      -0.64180000       0.09660000
C       -1.05410000      -2.09910000      -0.24690000
N       -2.28500000      -0.05350000       0.47850000
C       -3.52440000      -0.80040000       0.63490000
C       -4.49830000       0.06530000       1.43710000
O       -4.66310000       1.33060000       0.83370000
H        0.92430000       1.78040000       0.10100000
H       -0.78320000       1.95580000      -0.41890000
H       -0.41730000       1.59680000       1.28050000
H       -0.03560000      -2.29260000      -0.58300000
H       -1.26590000      -2.72550000       0.62550000
H       -1.75620000      -2.39140000      -1.03380000
H       -3.96580000      -1.00540000      -0.35170000
H       -3.38210000      -1.76770000       1.14000000
H       -5.48400000      -0.41070000       1.47940000
H       -4.12520000       0.15860000       2.47090000
H       -3.76380000       1.61380000       0.61900000
