15
Properties=species:S:1:pos:R:3 gdb_61490=T pbc="F F F"
O       -1.08120000       0.68920000       0.07730000
C       -0.10920000      -0.33100000       0.08570000
C        0.14000000      -0.95020000      -1.31330000
C        0.18870000       0.14040000      -2.40720000
O        0.84890000       1.32690000      -1.99390000
C        0.76310000      -0.40070000      -3.65220000
N        1.23240000      -0.83570000      -4.61400000
C        1.16810000       0.13720000       0.66930000
N        2.17860000       0.50370000       1.09440000
H       -0.68540000       1.45040000      -0.36960000
H       -0.49560000      -1.11490000       0.74530000
H        1.06900000      -1.52840000      -1.29780000
H       -0.67320000      -1.64100000      -1.55270000
H       -0.83520000       0.45970000      -2.62310000
H        1.76700000       1.12860000      -1.76840000
