14
Properties=species:S:1:pos:R:3 gdb_13475=T pbc="F F F"
N       -0.14120000       1.28010000       0.32480000
C        0.06010000       0.01510000      -0.12490000
O        1.09750000      -0.40030000      -0.60120000
C       -1.18770000      -0.86480000      -0.02920000
C       -0.98210000      -2.34720000       0.32270000
O       -1.78930000      -2.16230000       1.54130000
C       -1.96000000      -0.83020000       1.27230000
N       -2.51360000       0.09290000       1.92000000
H        0.65140000       1.90150000       0.35180000
H       -0.95130000       1.48690000       0.89470000
H       -1.81310000      -0.68630000      -0.90770000
H       -1.44470000      -3.08130000      -0.33810000
H        0.04380000      -2.62570000       0.56570000
H       -2.90890000      -0.23250000       2.80260000
