16
Properties=species:S:1:pos:R:3 gdb_63349=T pbc="F F F"
C        0.08990000       1.57160000      -0.01840000
C       -0.05930000       0.04230000      -0.01420000
O       -1.41930000      -0.33350000      -0.00130000
C        0.68460000      -0.62400000      -1.17960000
C        2.00340000      -1.07630000      -0.58220000
O        3.00570000      -1.43330000      -1.11090000
O        1.89630000      -1.04310000       0.81040000
C        0.67130000      -0.54740000       1.18920000
N        0.19230000      -0.57160000       2.35000000
H        1.14060000       1.87750000      -0.06520000
H       -0.43450000       1.97980000      -0.88650000
H       -0.35010000       1.98870000       0.89100000
H       -1.69650000      -0.32200000       0.92510000
H        0.13170000      -1.50950000      -1.50920000
H        0.85820000       0.01420000      -2.04670000
H        0.81340000      -1.02000000       3.02330000
