18
Properties=species:S:1:pos:R:3 gdb_106785=T pbc="F F F"
C       -0.06730000       1.49580000      -0.11190000
C        0.05220000       0.01550000       0.09420000
C        1.30440000      -0.78890000      -0.12720000
C        0.66300000      -0.76960000       1.24840000
C        1.37320000      -0.25620000       2.47390000
O        2.20990000      -1.25050000       3.03540000
N       -0.25460000      -1.86760000       1.50230000
C       -1.19150000      -1.73960000       0.65160000
O       -1.16000000      -0.69230000      -0.20610000
H        0.85960000       1.99350000       0.18490000
H       -0.25050000       1.72750000      -1.16630000
H       -0.88920000       1.91100000       0.47910000
H        1.25470000      -1.70130000      -0.71220000
H        2.22110000      -0.21840000      -0.23580000
H        2.01690000       0.59140000       2.21680000
H        0.62880000       0.09720000       3.20500000
H        1.66170000      -2.03900000       3.12930000
H       -2.04590000      -2.39610000       0.53890000
