20
Properties=species:S:1:pos:R:3 gdb_62022=T pbc="F F F"
C       -0.52390000       1.16550000      -1.30020000
C       -0.59010000       0.19030000      -0.11930000
N       -1.64400000      -0.79930000      -0.35240000
C       -2.07880000      -1.48770000       0.84870000
C       -3.06650000      -0.68910000       1.71200000
C       -3.39610000      -1.26150000       3.07480000
O       -3.56140000       0.33330000       1.29410000
C        0.73730000      -0.55400000      -0.02850000
O        1.55910000      -0.39990000       0.83730000
H        0.28190000       1.89080000      -1.16100000
H       -0.35600000       0.62650000      -2.23840000
H       -1.46730000       1.71470000      -1.38200000
H       -0.71940000       0.75900000       0.81390000
H       -2.45030000      -0.32410000      -0.74760000
H       -2.57980000      -2.43140000       0.58400000
H       -1.21240000      -1.77780000       1.45570000
H       -2.52810000      -1.14750000       3.73520000
H       -4.24740000      -0.73560000       3.50850000
H       -3.60740000      -2.33430000       3.01110000
H        0.88500000      -1.27980000      -0.86140000
