18
Properties=species:S:1:pos:R:3 gdb_79898=T pbc="F F F"
C        0.01150000       1.50790000      -0.23860000
N        0.02760000       0.06950000       0.02580000
C       -1.03440000      -0.51800000       0.92090000
C       -0.07250000      -1.73200000       1.07050000
O       -0.24820000      -2.56420000       2.18610000
C        0.04530000      -1.87910000       3.37890000
O       -0.52980000      -0.59630000       3.41110000
C       -0.33170000       0.07020000       2.18450000
C        0.79850000      -0.43720000       1.21600000
H        0.96970000       1.78490000      -0.68980000
H       -0.77110000       1.70980000      -0.97690000
H       -0.15890000       2.16960000       0.62280000
H       -2.09300000      -0.51970000       0.65880000
H        0.09030000      -2.33240000       0.17640000
H       -0.37110000      -2.45500000       4.20750000
H        1.14020000      -1.79060000       3.48750000
H       -0.41890000       1.13810000       2.37330000
H        1.88270000      -0.33140000       1.28040000
