12
Properties=species:S:1:pos:R:3 gdb_130467=T pbc="F F F"
O       -0.05780000       1.91590000       0.01270000
C        1.10070000       2.28210000       0.00370000
C        2.23190000       1.37090000      -0.01210000
C        3.59450000       1.62610000      -0.02340000
C        4.24420000       0.35880000      -0.03670000
N        3.39410000      -0.66490000      -0.03460000
C        2.16650000      -0.06290000      -0.01970000
N        1.05950000      -0.79420000      -0.01370000
N        0.13160000      -1.42480000      -0.00770000
H        1.36560000       3.36020000       0.00730000
H        4.06500000       2.59930000      -0.02220000
H        5.31150000       0.17860000      -0.04770000
