19
Properties=species:S:1:pos:R:3 gdb_55141=T pbc="F F F"
N        0.45680000       0.20170000       0.85440000
C       -0.18040000       0.35180000      -0.33710000
O        0.17080000       1.12670000      -1.20690000
C       -1.43450000      -0.51560000      -0.46470000
C       -1.77490000      -0.97380000      -1.91950000
C       -1.78170000      -2.48800000      -1.64110000
C       -2.51950000      -2.53970000      -0.27800000
N       -1.30610000      -1.81350000       0.27760000
C       -0.52540000      -2.62490000      -0.74940000
H        1.31390000       0.70410000       1.01510000
H        0.17090000      -0.54210000       1.47170000
H       -2.25650000       0.05250000      -0.01610000
H       -2.74260000      -0.60100000      -2.26390000
H       -1.01040000      -0.66020000      -2.63280000
H       -2.00410000      -3.16210000      -2.46940000
H       -3.46780000      -2.00610000      -0.16280000
H       -2.58970000      -3.53840000       0.15870000
H       -0.35170000      -3.63230000      -0.36560000
H        0.41510000      -2.17600000      -1.08040000
