15
Properties=species:S:1:pos:R:3 gdb_112333=T pbc="F F F"
O        0.06420000       1.35060000      -0.13750000
C        0.04100000      -0.05870000      -0.09050000
C       -1.36680000      -0.58710000       0.16710000
O       -2.22180000      -0.12060000      -0.90830000
C       -3.00000000      -1.11680000      -1.42700000
O       -3.87990000      -0.91620000      -2.20880000
C       -2.54330000      -2.42570000      -0.83050000
O       -1.15040000      -2.65980000      -1.10670000
C       -1.50960000      -2.09700000       0.15400000
H       -0.52630000       1.61870000      -0.85080000
H        0.42150000      -0.51590000      -1.01430000
H        0.69500000      -0.36030000       0.73480000
H       -1.75920000      -0.16780000       1.10080000
H       -3.19850000      -3.28840000      -0.81660000
H       -1.30070000      -2.69420000       1.03580000
