16
Properties=species:S:1:pos:R:3 gdb_98388=T pbc="F F F"
C        0.11840000       1.18640000       0.19630000
O        0.05830000      -0.23240000      -0.00730000
C        0.70880000      -0.67070000      -1.07630000
O        1.29660000       0.02960000      -1.86700000
N        0.62390000      -2.07540000      -1.22080000
C        1.13120000      -2.58560000      -2.43520000
N        1.14360000      -3.82780000      -2.68770000
C        0.10020000      -3.00340000      -0.29020000
N       -0.23310000      -2.72130000       0.89780000
H        1.15510000       1.51620000       0.29470000
H       -0.34610000       1.71510000      -0.63940000
H       -0.43180000       1.36540000       1.11920000
H        1.48760000      -1.78230000      -3.07710000
H        1.53220000      -3.99040000      -3.61410000
H        0.05940000      -3.98720000      -0.75770000
H       -0.57200000      -3.57030000       1.35040000
