23
Properties=species:S:1:pos:R:3 gdb_117935=T pbc="F F F"
C       -0.25370000       1.43520000       0.29040000
C        0.00740000      -0.05280000       0.03790000
C        0.77720000      -0.71380000       1.18740000
C        1.00740000      -2.23680000       1.01370000
C        1.94390000      -2.57490000      -0.15530000
C        1.57920000      -2.76830000       2.31780000
O        2.74220000      -2.62090000       2.63520000
C        0.64320000      -3.49340000       3.27320000
O        1.28520000      -3.83370000       4.46310000
H        0.68520000       1.98700000       0.40860000
H       -0.80370000       1.88790000      -0.54020000
H       -0.84220000       1.58610000       1.20210000
H       -0.94810000      -0.57470000      -0.10520000
H        0.56290000      -0.16750000      -0.89970000
H        1.75320000      -0.22960000       1.31580000
H        0.22560000      -0.53990000       2.12140000
H        0.03000000      -2.71180000       0.85250000
H        2.93220000      -2.14090000       0.01690000
H        2.06760000      -3.65730000      -0.25950000
H        1.55030000      -2.19250000      -1.10000000
H       -0.23530000      -2.85270000       3.45830000
H        0.26050000      -4.38550000       2.74540000
H        2.20570000      -3.54980000       4.33580000
