22
Properties=species:S:1:pos:R:3 gdb_56148=T pbc="F F F"
C       -0.09400000       1.57500000       0.43800000
C       -0.01960000       0.11060000      -0.03910000
C        0.81670000      -0.72510000       0.94170000
C       -1.43850000      -0.47010000      -0.13420000
N        0.56290000       0.00340000      -1.40430000
H        1.28300000      -1.70140000      -1.85960000
H       -0.03980000       0.49770000      -2.05170000
C        1.95760000       0.40690000      -1.60160000
C        2.89240000      -0.81040000      -1.72000000
O        2.23220000      -1.96170000      -1.90170000
O        4.08990000      -0.72690000      -1.68170000
H        0.89770000       2.03170000       0.50840000
H       -0.69750000       2.17800000      -0.24960000
H       -0.55400000       1.63750000       1.42920000
H        0.35590000      -0.70420000       1.93350000
H        0.88270000      -1.76700000       0.61690000
H        1.83470000      -0.33830000       1.04660000
H       -2.04950000       0.09680000      -0.84650000
H       -1.41060000      -1.51210000      -0.46540000
H       -1.93970000      -0.42850000       0.83710000
H        2.05140000       0.95940000      -2.54240000
H        2.35690000       1.06150000      -0.82070000
