19
Properties=species:S:1:pos:R:3 gdb_98979=T pbc="F F F"
C        0.90520000       1.37770000      -1.06400000
C        0.06810000       0.10770000      -0.84260000
C        0.88320000      -1.13440000      -0.52710000
O        0.66720000      -1.81840000       0.44430000
C        2.04180000      -1.51740000      -1.47050000
C        1.63220000      -1.68100000      -2.92090000
O        1.07280000      -0.84410000      -3.58810000
O        1.97670000      -2.89480000      -3.38370000
C        1.63750000      -3.14820000      -4.75530000
H        1.56550000       1.57940000      -0.21400000
H        1.50850000       1.29590000      -1.97120000
H        0.24540000       2.24150000      -1.18330000
H       -0.63530000       0.23260000      -0.01550000
H       -0.50530000      -0.09320000      -1.75490000
H        2.78170000      -0.70840000      -1.44190000
H        2.49820000      -2.42970000      -1.09030000
H        1.99010000      -4.15790000      -4.96380000
H        0.55680000      -3.08040000      -4.90150000
H        2.12780000      -2.42570000      -5.41210000
