20
Properties=species:S:1:pos:R:3 gdb_104653=T pbc="F F F"
C        0.34100000       1.34700000      -0.07950000
O        0.20220000      -0.04260000       0.15540000
C       -1.12310000      -0.51360000       0.11480000
C       -1.85390000      -0.50090000      -1.25680000
N       -1.50440000      -1.92060000      -1.44810000
C       -2.51090000      -2.80770000      -1.98580000
C       -1.12760000      -2.06550000      -0.03290000
C       -1.90860000      -0.01170000       1.31380000
O       -3.10760000       0.09210000       1.35840000
H        1.40160000       1.58050000       0.03370000
H        0.02290000       1.62590000      -1.09290000
H       -0.23150000       1.95060000       0.64060000
H       -2.92820000      -0.31460000      -1.11310000
H       -1.46290000       0.17260000      -2.02620000
H       -2.73570000      -2.52500000      -3.01970000
H       -2.13200000      -3.83520000      -1.99630000
H       -3.45800000      -2.79540000      -1.41340000
H       -0.15370000      -2.53210000       0.14530000
H       -1.89440000      -2.54900000       0.59130000
H       -1.26300000       0.22220000       2.19120000
