22
Properties=species:S:1:pos:R:3 gdb_119922=T pbc="F F F"
C       -1.87980000       1.29110000       2.06440000
C       -1.78900000      -0.21210000       1.79090000
C       -1.92370000      -0.55850000       0.30130000
C       -1.75750000      -2.04400000       0.05490000
C       -2.93410000      -2.99100000       0.05510000
C       -4.26950000      -2.48780000       0.22330000
C       -5.40060000      -2.10040000       0.36470000
N       -2.15190000      -2.72540000      -1.16910000
C       -2.76570000      -1.98340000      -2.26340000
H       -1.77860000       1.50790000       3.13230000
H       -1.09060000       1.83880000       1.53700000
H       -2.84170000       1.69680000       1.73220000
H       -0.83200000      -0.59650000       2.16800000
H       -2.57260000      -0.73890000       2.34880000
H       -2.89600000      -0.21320000      -0.06140000
H       -1.15890000      -0.01580000      -0.27120000
H       -0.83490000      -2.44810000       0.47480000
H       -2.78800000      -3.99450000       0.45040000
H       -6.39830000      -1.76040000       0.49400000
H       -3.52380000      -1.24970000      -1.96160000
H       -1.97610000      -1.46660000      -2.81740000
H       -3.24180000      -2.69910000      -2.94040000
