20
Properties=species:S:1:pos:R:3 gdb_99704=T pbc="F F F"
C       -0.25630000       1.59960000      -0.00000000
C       -0.12110000       0.14980000      -0.00570000
C        0.00250000      -1.04830000      -0.00100000
C        0.10940000      -2.50490000      -0.02960000
C       -1.29930000      -3.15270000      -0.00890000
O       -1.24470000      -4.56550000       0.03920000
C        0.89580000      -2.98060000      -1.24450000
C        2.35780000      -3.19520000      -1.18530000
N        1.44360000      -4.35170000      -1.26880000
H        0.25690000       2.05000000      -0.85680000
H       -1.30820000       1.90180000      -0.04800000
H        0.17230000       2.03550000       0.90920000
H        0.63590000      -2.85330000       0.87130000
H       -1.83020000      -2.82940000       0.89070000
H       -1.87100000      -2.79410000      -0.87760000
H       -0.90520000      -4.87860000      -0.80650000
H        0.46470000      -2.67100000      -2.19520000
H        2.96960000      -3.02900000      -2.06680000
H        2.86070000      -3.00150000      -0.24120000
H        1.34200000      -4.76600000      -0.34460000
