11
Properties=species:S:1:pos:R:3 gdb_24811=T pbc="F F F"
O       -0.05100000      -0.03670000       0.00370000
C       -0.03810000       1.16190000       0.00970000
N       -1.24840000       1.91510000       0.03090000
C       -1.15660000       3.17730000       0.03540000
O       -0.00670000       3.90630000       0.02230000
C        1.14570000       3.15660000       0.00260000
N        1.18740000       1.88340000      -0.00400000
C        2.31150000       3.97370000      -0.01020000
C        3.29710000       4.66040000      -0.02110000
H       -2.02280000       3.83340000       0.05100000
H        4.17580000       5.25920000      -0.03080000
