19
Properties=species:S:1:pos:R:3 gdb_108292=T pbc="F F F"
O       -0.12950000       1.49010000       0.18930000
C        0.01190000       0.07700000       0.24940000
C       -1.34430000      -0.52690000      -0.00540000
C       -2.42620000      -0.40400000       1.10200000
C       -2.70450000      -1.93330000       1.01890000
C       -1.58430000      -2.09050000      -0.06150000
C       -2.11760000      -1.91170000      -1.48520000
O       -2.51160000      -2.67450000      -2.32010000
C       -1.91050000      -0.38570000      -1.45000000
H        0.72840000       1.88890000       0.36320000
H        0.72910000      -0.28650000      -0.50590000
H        0.38390000      -0.24510000       1.23590000
H       -2.01390000      -0.09440000       2.06560000
H       -3.26460000       0.25580000       0.86680000
H       -2.47590000      -2.47290000       1.93970000
H       -3.70380000      -2.23110000       0.69260000
H       -0.82340000      -2.85510000       0.10510000
H       -2.80560000       0.22810000      -1.58330000
H       -1.16410000      -0.06100000      -2.18320000
