21
Properties=species:S:1:pos:R:3 gdb_87737=T pbc="F F F"
C        0.00630000       1.50750000      -0.11320000
C        0.05610000       0.00020000      -0.00320000
C        1.36800000      -0.73930000      -0.16060000
C        0.69200000      -0.68740000       1.17660000
C        1.16350000      -0.01640000       2.47340000
C        0.18890000      -0.96180000       3.25800000
C        0.06690000      -1.84290000       1.96650000
C        0.66130000      -1.58370000       4.47660000
C        1.07330000      -2.10950000       5.47730000
H        0.91290000       1.96690000       0.29400000
H       -0.07910000       1.82240000      -1.15910000
H       -0.84970000       1.92430000       0.43020000
H       -0.81610000      -0.50720000      -0.41170000
H        1.37560000      -1.68310000      -0.69740000
H        2.26650000      -0.14350000      -0.29740000
H        2.20880000      -0.23400000       2.70930000
H        0.98930000       1.05610000       2.58960000
H       -0.75740000      -0.44460000       3.44530000
H       -0.94200000      -2.16110000       1.69050000
H        0.71610000      -2.72140000       2.02140000
H        1.43160000      -2.57130000       6.36350000
