17
Properties=species:S:1:pos:R:3 gdb_43691=T pbc="F F F"
O        0.14590000       0.08660000      -0.28510000
C        0.04430000       1.24270000       0.00050000
C       -1.15030000       2.19090000       0.19030000
C       -0.18380000       3.19140000       0.88440000
C        1.05060000       2.32820000       0.41830000
N       -0.32230000       4.57130000       0.47150000
C        0.67190000       5.45630000       1.06990000
C        0.49450000       6.83520000       0.60710000
N        0.37150000       7.91760000       0.22410000
H       -1.52230000       2.56640000      -0.77060000
H       -1.99960000       1.81110000       0.76180000
H       -0.28900000       3.15170000       1.97340000
H        1.80360000       2.03450000       1.15370000
H        1.55830000       2.75670000      -0.45450000
H       -0.28490000       4.64720000      -0.54070000
H        0.54580000       5.43800000       2.15970000
H        1.71880000       5.16420000       0.87130000
