18
Properties=species:S:1:pos:R:3 gdb_97152=T pbc="F F F"
C        0.20230000       1.41590000      -0.08860000
N        0.45860000      -0.01560000      -0.09790000
C        0.50540000      -0.64270000       0.99240000
O        0.31310000      -0.09960000       2.23910000
C        0.69670000      -1.02470000       3.27050000
C        0.89700000      -2.35060000       2.57290000
O       -0.26940000      -2.75940000       1.86300000
C        0.79660000      -2.10570000       1.12710000
C        1.44990000      -2.86590000       0.01510000
H        0.79140000       1.88650000      -0.88160000
H       -0.85410000       1.60050000      -0.31970000
H        0.42990000       1.89970000       0.86840000
H        1.62250000      -0.67780000       3.74570000
H       -0.10330000      -1.05370000       4.01630000
H        1.50830000      -3.13270000       3.01420000
H        0.85130000      -2.77640000      -0.89520000
H        2.44150000      -2.45780000      -0.19990000
H        1.54350000      -3.92100000       0.28170000
