18
Properties=species:S:1:pos:R:3 gdb_91027=T pbc="F F F"
O       -0.06190000       1.41400000      -0.17330000
C       -0.03060000       0.00280000      -0.01430000
C        0.21390000      -0.57410000       1.39980000
N       -1.13160000      -1.24950000       1.41820000
C       -2.11980000      -0.33190000       2.02490000
C       -3.46970000      -0.58630000       1.41230000
C       -2.50470000       0.27550000       0.66310000
O       -2.86020000       1.52470000       0.21330000
C       -1.44000000      -0.61510000       0.03770000
H        0.83380000       1.75770000      -0.10100000
H        0.60630000      -0.45210000      -0.78240000
H        1.02810000      -1.30100000       1.46440000
H        0.34130000       0.18250000       2.18080000
H       -1.96900000       0.07520000       3.01840000
H       -3.74410000      -1.58230000       1.06950000
H       -4.27350000      -0.01750000       1.86970000
H       -2.02900000       1.99720000       0.06460000
H       -1.72710000      -1.26960000      -0.78950000
