17
Properties=species:S:1:pos:R:3 gdb_34755=T pbc="F F F"
C       -0.07680000      -1.25060000      -0.12720000
C       -0.03680000      -0.05050000      -0.05410000
C       -0.00450000       1.39620000       0.01820000
C        0.02750000       2.08140000       1.41470000
C        1.53760000       1.68810000       1.57440000
C        2.21220000       2.85300000       2.28370000
O        1.55500000       3.97020000       1.65480000
C        0.67570000       3.33370000       0.75440000
C        1.37250000       2.11830000       0.07500000
H       -0.11160000      -2.30980000      -0.19140000
H       -0.71910000       1.83500000      -0.68710000
H       -0.74650000       2.05290000       2.18190000
H        1.81560000       0.66650000       1.82540000
H        2.02950000       2.87080000       3.36500000
H        3.29320000       2.90550000       2.10620000
H        0.09410000       4.06210000       0.19070000
H        2.14290000       2.13220000      -0.69620000
