12
Properties=species:S:1:pos:R:3 gdb_3308=T pbc="F F F"
N       -0.04610000      -1.16260000      -0.10240000
C       -0.00930000      -0.01080000      -0.01790000
C        0.04970000       1.45170000       0.06890000
O       -0.14430000       1.95590000       1.41480000
C        1.08610000       2.69290000       1.32450000
C        2.24650000       1.76720000       1.17840000
C        1.41880000       2.12930000      -0.03770000
H       -0.69580000       1.88580000      -0.60660000
H        1.09940000       3.69580000       1.73150000
H        3.22480000       2.23680000       1.19760000
H        2.19980000       0.77040000       1.60690000
H        1.81570000       2.58690000      -0.93210000
