18
Properties=species:S:1:pos:R:3 gdb_27092=T pbc="F F F"
C       -0.26010000       1.58780000       0.24630000
C       -0.06110000       0.10980000       0.09000000
C        0.06050000      -0.60120000      -1.09030000
C        0.05410000      -0.18210000      -2.53110000
C        1.39740000      -0.55840000      -3.13390000
O        1.59160000      -1.57530000      -3.75270000
N        0.22680000      -1.93110000      -0.76400000
C        0.20910000      -2.08320000       0.59550000
C        0.02890000      -0.83990000       1.15200000
H        0.59480000       2.06260000       0.74260000
H       -0.39390000       2.08680000      -0.71800000
H       -1.14500000       1.81080000       0.85310000
H       -0.73480000      -0.68670000      -3.10100000
H       -0.09600000       0.89910000      -2.59660000
H        2.22760000       0.14520000      -2.90270000
H        0.38260000      -2.66140000      -1.43860000
H        0.32240000      -3.05470000       1.04900000
H       -0.03940000      -0.62290000       2.20750000
