19
Properties=species:S:1:pos:R:3 gdb_12822=T pbc="F F F"
C        0.01090000       1.53220000       0.02010000
C       -0.06890000       0.02160000       0.01990000
C       -0.88120000      -0.69620000       1.03540000
N        0.58050000      -0.64850000       1.16290000
C        1.30080000      -1.91390000       0.93210000
C        1.49950000      -2.25040000      -0.54680000
O        0.31330000      -2.00870000      -1.28630000
C        0.06370000      -0.61920000      -1.35520000
H        0.96540000       1.87600000      -0.39470000
H       -0.79450000       1.96790000      -0.58330000
H       -0.07250000       1.91800000       1.03870000
H       -1.43560000      -0.14310000       1.79030000
H       -1.32800000      -1.64210000       0.73490000
H        2.28070000      -1.84570000       1.42100000
H        0.75140000      -2.72360000       1.42550000
H        2.32450000      -1.65400000      -0.97080000
H        1.74920000      -3.30780000      -0.67400000
H       -0.85980000      -0.48980000      -1.92960000
H        0.87740000      -0.12030000      -1.91090000
