20
Properties=species:S:1:pos:R:3 gdb_60825=T pbc="F F F"
C       -0.09250000       1.38150000       0.52450000
C        0.07380000      -0.00990000      -0.11370000
C       -1.26650000      -0.72420000      -0.09060000
O       -1.51470000      -1.68980000       0.58550000
C        0.59440000       0.04870000      -1.57590000
O       -0.22620000       0.88010000      -2.39480000
C        2.05420000       0.43840000      -1.65810000
C        3.09960000      -0.60830000      -1.78550000
N        2.77870000       0.26540000      -2.92430000
H        0.85280000       1.93160000       0.54340000
H       -0.82770000       1.97960000      -0.02330000
H       -0.44040000       1.28900000       1.55700000
H        0.76820000      -0.61370000       0.48010000
H       -2.03130000      -0.27590000      -0.76280000
H        0.49010000      -0.95300000      -2.01420000
H        0.03560000       1.79600000      -2.25310000
H        2.31560000       1.36110000      -1.14120000
H        4.08130000      -0.45200000      -1.34820000
H        2.77690000      -1.64630000      -1.81160000
H        2.18570000      -0.22460000      -3.59110000
