23
Properties=species:S:1:pos:R:3 gdb_118132=T pbc="F F F"
C       -0.19990000       1.32270000       0.11540000
O        0.03080000      -0.05520000      -0.03520000
C        0.62070000      -0.64360000       1.10530000
C        0.86060000      -2.12950000       0.83430000
C        1.82110000      -2.34140000      -0.34390000
C        1.37300000      -2.80920000       2.09140000
C        0.41430000      -3.26200000       3.17890000
C        1.13680000      -4.27320000       2.32350000
O        0.43700000      -4.96480000       1.32850000
H        0.73540000       1.87920000       0.28920000
H       -0.65740000       1.68360000      -0.80940000
H       -0.88190000       1.53530000       0.95480000
H        1.57640000      -0.14040000       1.34190000
H       -0.03620000      -0.51740000       1.98260000
H       -0.10570000      -2.57420000       0.57300000
H        1.90720000      -3.40540000      -0.57910000
H        1.46320000      -1.81080000      -1.22920000
H        2.82290000      -1.96270000      -0.10520000
H        2.33830000      -2.44060000       2.43360000
H        0.69580000      -3.15340000       4.22080000
H       -0.64460000      -3.13150000       2.97730000
H        1.94200000      -4.84330000       2.78730000
H       -0.15100000      -5.59340000       1.75940000
