14
Properties=species:S:1:pos:R:3 gdb_125328=T pbc="F F F"
C        0.09640000       1.46870000       0.02080000
C       -0.08240000      -0.00160000       0.01140000
C       -1.15770000      -0.79510000      -0.18320000
N       -0.69250000      -2.11060000      -0.07040000
C       -0.94990000      -3.45960000      -0.09890000
N        0.16320000      -4.12050000       0.12680000
N        1.20760000      -3.22080000       0.31410000
C        0.64630000      -2.05420000       0.18730000
O        1.05400000      -0.76830000       0.24460000
H        0.81160000       1.78230000      -0.74710000
H       -0.85890000       1.96140000      -0.17150000
H        0.47760000       1.81200000       0.98840000
H       -2.18210000      -0.53770000      -0.38500000
H       -1.91980000      -3.89160000      -0.27910000
