19
Properties=species:S:1:pos:R:3 gdb_118636=T pbc="F F F"
O       -0.11550000       1.52650000       0.05620000
C        0.05890000       0.12050000       0.03630000
C       -1.33200000      -0.50580000       0.04760000
C       -1.31020000      -2.04650000       0.04760000
C       -2.74260000      -2.60760000       0.21310000
C       -2.77500000      -4.10120000       0.46750000
O       -3.43160000      -4.62410000       1.32960000
C       -0.71240000      -2.54500000      -1.25760000
O        0.27310000      -3.22690000      -1.36260000
H        0.75280000       1.93960000       0.05030000
H        0.61570000      -0.20180000      -0.85820000
H        0.62800000      -0.22910000       0.91280000
H       -1.86700000      -0.15150000       0.93500000
H       -1.89280000      -0.13840000      -0.82140000
H       -0.67170000      -2.41110000       0.86040000
H       -3.26670000      -2.10720000       1.03180000
H       -3.31340000      -2.41440000      -0.70860000
H       -2.13810000      -4.70910000      -0.21490000
H       -1.28080000      -2.21080000      -2.16040000
