16
Properties=species:S:1:pos:R:3 gdb_18590=T pbc="F F F"
O       -0.27770000       1.40170000      -0.05400000
C        0.00670000       0.03150000       0.02050000
C        0.20720000      -0.65990000       1.43530000
C       -0.68060000      -1.84800000       0.91460000
O       -1.81490000      -2.33370000       1.60550000
C       -2.98680000      -1.91670000       0.87640000
C       -2.51280000      -0.82590000      -0.07160000
C       -1.18740000      -0.87550000      -0.10360000
H        0.55430000       1.88470000      -0.06810000
H        0.82820000      -0.24860000      -0.65430000
H        1.23140000      -0.88510000       1.74390000
H       -0.31880000      -0.08660000       2.20040000
H       -0.06530000      -2.68430000       0.55720000
H       -3.43740000      -2.78480000       0.36880000
H       -3.72880000      -1.53140000       1.58810000
H       -3.16690000      -0.06670000      -0.47920000
