15
Properties=species:S:1:pos:R:3 gdb_50271=T pbc="F F F"
O       -0.08440000      -0.04550000      -0.16260000
C        0.00620000       1.11260000       0.15860000
C        1.25990000       1.93560000       0.00180000
C        1.16640000       3.22110000      -0.90950000
C        1.50770000       4.07290000       0.31590000
O        0.51250000       3.81320000       1.30360000
C        1.60400000       2.87930000       1.19050000
C        2.39680000       2.58060000       2.33090000
C        3.07550000       2.27850000       3.27620000
H       -0.85330000       1.66610000       0.59250000
H        2.09340000       1.29070000      -0.27920000
H        1.93810000       3.22040000      -1.68090000
H        0.19470000       3.43670000      -1.36010000
H        2.02830000       5.02130000       0.37470000
H        3.67240000       2.02170000       4.11660000
