14
Properties=species:S:1:pos:R:3 gdb_24914=T pbc="F F F"
N        0.01390000       1.22130000       0.00690000
C       -0.02190000      -0.03110000       0.00070000
C       -1.28330000      -0.91910000       0.00320000
C       -0.66900000      -2.28790000      -0.00720000
C        0.66300000      -2.10520000      -0.01370000
O        1.38640000      -3.21930000      -0.02350000
C        0.42890000      -4.23130000      -0.02350000
C       -0.83230000      -3.71400000      -0.01360000
O        1.14420000      -0.83840000      -0.00990000
H        0.97250000       1.57140000       0.00330000
H       -1.88640000      -0.68790000       0.88780000
H       -1.89630000      -0.67890000      -0.87210000
H        0.82880000      -5.22960000      -0.03090000
H       -1.74400000      -4.29080000      -0.01140000
