21
Properties=species:S:1:pos:R:3 gdb_63821=T pbc="F F F"
C       -0.35430000       1.60070000      -0.07760000
C        0.00060000       0.12170000      -0.05880000
O       -1.18810000      -0.66480000      -0.14060000
C        1.09820000      -0.42730000      -1.04780000
C        1.79260000      -1.16290000       0.14070000
C        2.98160000      -0.48950000       0.87110000
C        2.88920000       1.00370000       0.85370000
C        1.99310000       0.24290000       1.79750000
C        0.80640000      -0.48670000       1.12920000
H       -0.81190000       1.87330000      -1.03760000
H       -1.07850000       1.81650000       0.71420000
H        0.51580000       2.24310000       0.06990000
H       -1.62220000      -0.45000000      -0.97400000
H        0.67160000      -1.09620000      -1.79930000
H        1.70600000       0.32650000      -1.55510000
H        1.85250000      -2.24810000       0.07370000
H        3.90510000      -0.99670000       1.12500000
H        3.71110000       1.51060000       1.35090000
H        2.51630000       1.54520000      -0.00830000
H        2.06280000       0.41230000       2.86570000
H        0.20500000      -1.08030000       1.81710000
