16
Properties=species:S:1:pos:R:3 gdb_115472=T pbc="F F F"
O       -0.07140000       1.43430000      -0.25650000
C        0.01870000       0.05090000      -0.01740000
C       -1.35880000      -0.62060000      -0.07470000
C       -1.35380000      -2.13490000       0.25790000
O       -2.25510000      -2.25390000       1.38860000
C       -2.64040000      -0.99720000       1.67720000
C       -3.54890000      -0.79140000       2.84530000
O       -3.95860000      -1.67950000       3.54410000
N       -2.23080000      -0.02790000       0.95760000
H       -0.75380000       1.76970000       0.33800000
H        0.66880000      -0.36880000      -0.79330000
H        0.47880000      -0.17220000       0.96060000
H       -1.79690000      -0.41090000      -1.05690000
H       -1.73370000      -2.76670000      -0.54720000
H       -0.37070000      -2.50360000       0.56980000
H       -3.80400000       0.27530000       2.99470000
