17
Properties=species:S:1:pos:R:3 gdb_116548=T pbc="F F F"
C        0.15070000       1.61240000      -0.08150000
C        0.14400000       0.08140000      -0.04360000
N       -1.21690000      -0.40880000       0.05230000
C       -1.69540000      -1.19710000      -0.81320000
N       -2.99410000      -1.70360000      -0.79510000
C       -4.02160000      -1.48140000       0.11350000
N       -3.93940000      -0.73410000       1.13370000
C       -0.95560000      -1.70360000      -1.97070000
N       -0.36620000      -2.09880000      -2.88400000
H        1.17900000       1.98570000      -0.07030000
H       -0.33850000       1.98080000      -0.98820000
H       -0.38260000       2.01790000       0.78200000
H        0.69090000      -0.32240000      -0.90920000
H        0.66840000      -0.25540000       0.85950000
H       -3.21820000      -2.32280000      -1.55700000
H       -4.90860000      -2.05130000      -0.19070000
H       -4.82810000      -0.74350000       1.63230000
