25
Properties=species:S:1:pos:R:3 gdb_92620=T pbc="F F F"
C       -0.26600000       1.53940000      -0.00090000
C        0.02680000       0.04070000       0.00520000
C        0.91030000      -0.44980000      -1.15920000
C        1.38900000      -1.85150000      -0.72950000
C        2.83780000      -2.25410000      -1.08210000
C        3.32200000      -3.04980000       0.14330000
C        2.72340000      -2.26940000       1.32730000
C        1.31480000      -1.86000000       0.84380000
C        0.79920000      -0.46180000       1.24120000
H        0.66360000       2.11960000       0.04520000
H       -0.79970000       1.83940000      -0.90930000
H       -0.88170000       1.83050000       0.85710000
H       -0.92920000      -0.50170000      -0.04170000
H        0.38540000      -0.44730000      -2.12000000
H        1.76970000       0.22740000      -1.26440000
H        0.70080000      -2.60550000      -1.12650000
H        2.91210000      -2.81740000      -2.01720000
H        3.45720000      -1.35540000      -1.19970000
H        2.91000000      -4.06690000       0.11720000
H        4.41130000      -3.14370000       0.19450000
H        2.70810000      -2.84500000       2.25770000
H        3.32900000      -1.37320000       1.51540000
H        0.59090000      -2.61630000       1.16600000
H        1.64570000       0.21310000       1.43130000
H        0.18830000      -0.46770000       2.14970000
