16
Properties=species:S:1:pos:R:3 gdb_43400=T pbc="F F F"
O        0.05310000      -0.08160000       0.07720000
C        0.00130000       1.13660000       0.05780000
C       -1.21420000       1.91680000      -0.05300000
C       -1.17620000       3.27410000      -0.13720000
N       -0.04590000       4.01560000      -0.01940000
C        1.14890000       3.39950000       0.54190000
C        1.28580000       1.97090000       0.06130000
C        2.57420000       1.28010000       0.13910000
O        2.09250000       1.77230000      -1.11290000
H       -2.15280000       1.38930000      -0.16020000
H       -2.07980000       3.84650000      -0.32680000
H       -0.14270000       5.01250000       0.07590000
H        2.03100000       3.97250000       0.24550000
H        1.08720000       3.39490000       1.64280000
H        3.43960000       1.80310000       0.54580000
H        2.56110000       0.19890000       0.24760000
