15
Properties=species:S:1:pos:R:3 gdb_51394=T pbc="F F F"
O        0.27820000       0.12360000      -0.21350000
C        0.41330000       1.29630000      -0.37390000
O        1.03410000       2.08280000       0.54190000
C        1.05470000       3.47140000       0.28050000
C        2.21520000       4.26880000       0.71180000
C        3.50980000       3.45020000       0.57050000
C        3.20510000       3.35500000      -0.94300000
O        3.84690000       3.00270000      -1.88860000
C        1.89640000       4.09160000      -0.81800000
H        0.06490000       1.86110000      -1.25760000
H        0.08020000       3.93770000       0.40360000
H        2.10940000       5.17120000       1.29850000
H        4.41810000       4.03530000       0.73560000
H        3.56100000       2.51740000       1.13440000
H        1.46270000       4.76570000      -1.54670000
