21
Properties=species:S:1:pos:R:3 gdb_38353=T pbc="F F F"
C        0.11860000       1.56680000       0.33110000
C        1.64980000       1.42080000       0.08650000
C        1.49360000      -0.12060000       0.19820000
C       -0.05610000       0.02420000       0.08120000
C       -0.66830000      -0.39060000      -1.22810000
C       -0.21390000      -0.19500000      -2.46940000
C        1.01770000       0.56220000      -2.91940000
O        1.18070000       1.83990000      -2.32050000
C        2.11800000       1.95710000      -1.26770000
H       -0.12420000       1.84700000       1.35910000
H       -0.41380000       2.22030000      -0.36060000
H        2.29350000       1.86390000       0.85330000
H        1.98920000      -0.73470000      -0.55840000
H        1.78880000      -0.49320000       1.18230000
H       -0.59830000      -0.47930000       0.88480000
H       -1.60980000      -0.93000000      -1.13990000
H       -0.80480000      -0.60550000      -3.28580000
H        1.93010000      -0.03970000      -2.78030000
H        0.92830000       0.74480000      -3.99700000
H        2.30430000       3.03400000      -1.18210000
H        3.07150000       1.47670000      -1.54750000
