17
Properties=species:S:1:pos:R:3 gdb_44887=T pbc="F F F"
O       -0.01310000       0.06510000       0.00510000
C        0.05420000       1.25610000       0.00480000
O       -1.03740000       2.09670000       0.01990000
C       -0.40080000       3.41480000       0.03140000
C        0.68490000       3.25880000      -1.05810000
C        1.23310000       2.22670000      -0.00710000
C        0.71150000       3.22360000       1.06320000
C        1.47180000       4.25510000       1.82610000
C        0.68520000       3.17110000       2.55010000
H       -1.16350000       4.18960000       0.05880000
H        0.36160000       2.88020000      -2.02990000
H        1.32920000       4.13270000      -1.15880000
H        2.23160000       1.79880000      -0.02230000
H        2.55520000       4.19330000       1.84000000
H        1.08400000       5.26870000       1.85360000
H       -0.23010000       3.45670000       3.05780000
H        1.24440000       2.38490000       3.04660000
