17
Properties=species:S:1:pos:R:3 gdb_55183=T pbc="F F F"
N        0.56450000       0.38820000       0.95280000
C       -0.03010000      -0.02280000      -0.19660000
O        0.33020000       0.29830000      -1.31450000
C       -1.21950000      -0.97330000      -0.00910000
O       -0.92310000      -2.21800000       0.69050000
C       -2.14690000      -2.14690000       1.44870000
C       -1.94950000      -1.60650000       2.87380000
N       -1.89950000      -0.21630000       2.32260000
C       -2.36870000      -0.68750000       0.98520000
H        1.27930000       1.09370000       0.86700000
H        0.02890000       0.30920000       1.81140000
H       -1.59940000      -1.18410000      -1.01530000
H       -2.80730000      -2.99910000       1.27720000
H       -2.81930000      -1.79630000       3.51470000
H       -1.03700000      -1.91960000       3.38890000
H       -2.53190000       0.43490000       2.77070000
H       -3.29560000      -0.25350000       0.61060000
