18
Properties=species:S:1:pos:R:3 gdb_23226=T pbc="F F F"
O       -0.14710000       1.33680000       0.18670000
N        0.02580000      -0.06320000       0.20530000
C       -1.07160000      -0.65900000      -0.05130000
C       -2.38360000       0.04430000      -0.33750000
O       -3.47630000      -0.83650000      -0.59730000
C       -3.18050000      -2.22210000      -0.55070000
C       -2.38030000      -2.59660000       0.72470000
C       -1.11690000      -2.15300000      -0.08340000
C       -1.90740000      -2.56600000      -1.36820000
H        0.73870000       1.65310000       0.39140000
H       -2.63860000       0.68790000       0.51430000
H       -2.25170000       0.71310000      -1.19770000
H       -4.11940000      -2.73220000      -0.77040000
H       -2.62110000      -2.07010000       1.65110000
H       -2.38010000      -3.67530000       0.89770000
H       -0.14400000      -2.59460000       0.12990000
H       -1.82610000      -3.63950000      -1.55430000
H       -1.72990000      -2.01230000      -2.29310000
