20
Properties=species:S:1:pos:R:3 gdb_23432=T pbc="F F F"
C        0.04990000       1.34930000       0.38870000
C        0.00670000      -0.06180000      -0.20890000
C       -1.36710000      -0.69220000      -0.08450000
C       -1.68190000      -2.15550000      -0.11250000
C       -0.59890000      -2.99550000       0.59410000
C       -0.86470000      -2.15910000       1.84140000
N       -0.50830000      -2.20730000       3.05680000
O        0.46680000      -3.21030000       3.24960000
C       -1.91220000      -1.33110000       1.18520000
H        1.04160000       1.79740000       0.27520000
H       -0.67300000       2.01050000      -0.10230000
H       -0.19120000       1.32660000       1.45630000
H        0.28500000      -0.02440000      -1.27020000
H        0.75810000      -0.68580000       0.28480000
H       -2.14530000      -0.10570000      -0.57320000
H       -2.44000000      -2.56850000      -0.76590000
H       -0.89980000      -4.03410000       0.75970000
H        0.41020000      -2.98810000       0.17330000
H        0.62680000      -3.15300000       4.19730000
H       -2.83190000      -0.99660000       1.64800000
