19
Properties=species:S:1:pos:R:3 gdb_39487=T pbc="F F F"
C       -0.02720000       1.23980000      -0.19140000
C        1.45000000       1.55650000       0.12510000
C        1.87400000       1.44110000       1.58330000
O        0.92980000       0.93420000       2.52830000
C        2.10210000       0.14780000       2.27990000
C        1.99710000      -1.15700000       1.59320000
C        0.97090000      -1.65500000       0.89990000
C       -0.36860000      -0.99660000       0.65490000
O       -0.33210000      -0.11180000      -0.46630000
H       -0.66830000       1.62650000       0.61380000
H       -0.28900000       1.76790000      -1.11390000
H        2.08060000       0.92180000      -0.50750000
H        1.63380000       2.59090000      -0.18780000
H        2.43920000       2.29270000       1.96580000
H        2.81170000       0.16390000       3.10850000
H        2.91320000      -1.74250000       1.65200000
H        1.11640000      -2.61860000       0.41740000
H       -1.10460000      -1.76360000       0.39390000
H       -0.71890000      -0.47000000       1.54630000
