19
Properties=species:S:1:pos:R:3 gdb_89034=T pbc="F F F"
C        0.13060000       1.44830000      -0.27550000
C        0.07970000      -0.01470000       0.08820000
O        1.32180000      -0.71290000       0.22060000
C        0.49510000      -0.58500000       1.38080000
C        1.01830000       0.23820000       2.52250000
O        1.84200000      -0.62770000       3.32450000
C        2.38670000      -0.05790000       4.42200000
C        3.23720000      -1.05370000       5.17220000
O        2.20300000       1.09120000       4.73420000
H        0.90170000       1.98370000       0.28110000
H        0.34650000       1.55920000      -1.34310000
H       -0.83690000       1.92330000      -0.08010000
H       -0.67780000      -0.58200000      -0.45740000
H        0.02600000      -1.51870000       1.69640000
H        1.61320000       1.08560000       2.17700000
H        0.19740000       0.62420000       3.13730000
H        4.04910000      -1.40800000       4.53070000
H        3.64680000      -0.58130000       6.06410000
H        2.63910000      -1.92600000       5.45020000
