15
Properties=species:S:1:pos:R:3 gdb_123540=T pbc="F F F"
C       -0.12040000       1.48420000      -0.09490000
C        1.44290000       1.74710000       0.04880000
C        2.07010000       2.27350000       1.31870000
C        2.14450000       1.30060000       2.26550000
C        1.50240000       0.08430000       1.74630000
C        1.32870000       0.29720000       0.40410000
N        0.04150000      -0.06320000      -0.00330000
N       -0.55010000      -0.73310000       1.09200000
C        0.32720000      -0.69370000       2.07480000
H       -0.68740000       1.83600000       0.76300000
H       -0.55770000       1.77640000      -1.04760000
H        1.90640000       2.08480000      -0.87700000
H        2.52260000       3.25600000       1.39260000
H        2.56990000       1.42480000       3.25390000
H        0.08900000      -1.18670000       3.00990000
