18
Properties=species:S:1:pos:R:3 gdb_32254=T pbc="F F F"
C       -0.09280000       1.37650000      -0.04260000
O       -0.00720000      -0.03610000       0.02120000
C        0.64090000      -0.59590000       1.07830000
C        1.23530000       0.12080000       2.11810000
N        1.86620000      -0.46000000       3.14520000
C        1.92040000      -1.78930000       3.16030000
C        1.35560000      -2.58700000       2.16560000
C        0.69710000      -2.00090000       1.09250000
C        0.06570000      -2.79880000      -0.01410000
H        0.90080000       1.83920000      -0.09390000
H       -0.64390000       1.60510000      -0.95610000
H       -0.63370000       1.78750000       0.81900000
H        1.20640000       1.20560000       2.13160000
H        2.43670000      -2.24430000       4.00200000
H        1.42980000      -3.66840000       2.22850000
H       -1.00660000      -2.58820000      -0.08750000
H        0.49880000      -2.53510000      -0.98480000
H        0.20100000      -3.87040000       0.14970000
