20
Properties=species:S:1:pos:R:3 gdb_50538=T pbc="F F F"
O       -0.29940000       0.49060000       1.11990000
C       -0.06270000       1.62940000       0.76820000
N        1.04080000       2.00420000       0.08390000
C        2.24700000       1.23320000      -0.21760000
C        2.91570000       2.55370000      -0.69370000
C        1.62800000       3.31800000      -0.24660000
C        0.89780000       4.12560000      -1.28420000
C       -0.12860000       5.15370000      -0.87250000
C        1.20010000       5.59780000      -1.42620000
H       -0.74190000       2.48420000       0.96410000
H        2.69460000       0.77220000       0.66910000
H        2.10260000       0.45940000      -0.97730000
H        3.82860000       2.83500000      -0.16880000
H        3.09200000       2.60250000      -1.76940000
H        1.79020000       3.93570000       0.64800000
H        0.69310000       3.58010000      -2.20180000
H       -1.01190000       5.26880000      -1.49020000
H       -0.30710000       5.29630000       0.18840000
H        1.91440000       6.03720000      -0.73730000
H        1.23170000       6.01880000      -2.42450000
