21
Properties=species:S:1:pos:R:3 gdb_83739=T pbc="F F F"
C       -0.42290000       1.40270000       0.24940000
C       -0.01810000      -0.04640000       0.11270000
C        1.33110000      -0.45430000      -0.42190000
O        2.31380000       0.55310000      -0.47680000
C        2.97200000       0.61830000       0.79040000
C        1.96730000       0.09700000       1.82160000
C        2.41240000      -0.30060000       3.20180000
C        1.54770000       0.92280000       3.01430000
C        0.99940000      -0.74030000       1.01790000
H        0.44370000       2.04600000       0.41110000
H       -0.91990000       1.74450000      -0.66500000
H       -1.11950000       1.54820000       1.08170000
H       -0.82630000      -0.70850000      -0.19240000
H        1.43620000      -1.22090000      -1.18410000
H        3.87670000      -0.01040000       0.77390000
H        3.27610000       1.65650000       0.96040000
H        1.96670000      -1.18190000       3.65170000
H        3.45700000      -0.15320000       3.45940000
H        2.00560000       1.89780000       3.14980000
H        0.51200000       0.86760000       3.33180000
H        0.78330000      -1.74690000       1.35910000
