19
Properties=species:S:1:pos:R:3 gdb_62216=T pbc="F F F"
C        0.28360000       1.41470000       0.12610000
C        0.02640000      -0.09050000       0.01360000
N       -1.36840000      -0.52560000       0.09140000
C       -1.98780000      -0.43670000       1.40660000
C       -3.34300000      -1.16940000       1.38300000
C       -4.00940000      -1.14120000       2.68190000
N       -4.51850000      -1.10890000       3.71870000
C        0.61950000      -0.68360000      -1.26420000
O        1.39580000      -0.11750000      -1.98750000
H        1.34860000       1.62900000       0.01010000
H       -0.24700000       1.95490000      -0.66510000
H       -0.04810000       1.80060000       1.09360000
H        0.55560000      -0.61170000       0.82840000
H       -1.92130000      -0.00510000      -0.58460000
H       -1.32910000      -0.93100000       2.12850000
H       -2.14230000       0.59220000       1.76880000
H       -4.00700000      -0.70940000       0.64110000
H       -3.18970000      -2.20750000       1.07170000
H        0.25790000      -1.71470000      -1.47310000
