16
Properties=species:S:1:pos:R:3 gdb_44646=T pbc="F F F"
O       -0.43340000       0.29130000       0.40560000
C       -0.13860000       1.37280000       0.01350000
O       -0.96030000       2.28760000      -0.62290000
C        0.12620000       3.25340000      -0.76000000
C        0.26010000       4.23080000       0.42960000
C       -0.75870000       4.16050000       1.58900000
C        0.20300000       3.13550000       2.25990000
N        1.19670000       3.27610000       1.13420000
C        1.08330000       2.30020000      -0.00920000
H        0.22310000       3.59820000      -1.78760000
H        0.67350000       5.20790000       0.16420000
H       -0.87610000       5.09950000       2.13180000
H       -1.74220000       3.77630000       1.31590000
H        0.64080000       3.46350000       3.20610000
H       -0.19210000       2.12520000       2.39380000
H        2.02920000       1.89150000      -0.36320000
