21
Properties=species:S:1:pos:R:3 gdb_92367=T pbc="F F F"
C       -0.20120000       1.55600000      -0.01580000
C        0.00650000       0.04390000      -0.03000000
C        0.92030000      -0.49140000      -1.17920000
C        1.97620000      -1.27640000      -0.37290000
C        2.87860000      -0.27970000       0.37440000
O        1.98090000       0.22680000       1.37190000
C        0.76650000      -0.52750000       1.20090000
C        0.03360000      -0.63380000       2.51230000
O        1.21150000      -1.79070000       0.72870000
H        0.75490000       2.07740000       0.08070000
H       -0.68910000       1.89170000      -0.93640000
H       -0.83530000       1.86380000       0.82270000
H       -0.96710000      -0.45550000      -0.07660000
H        0.37510000      -1.15300000      -1.85590000
H        1.36470000       0.31170000      -1.77440000
H        2.48900000      -2.08500000      -0.89190000
H        3.73060000      -0.77270000       0.85770000
H        3.24470000       0.53420000      -0.26140000
H       -0.25530000       0.36000000       2.86290000
H       -0.86670000      -1.24180000       2.39430000
H        0.68200000      -1.09340000       3.26110000
