17
Properties=species:S:1:pos:R:3 gdb_44865=T pbc="F F F"
O       -0.01190000       0.02540000       0.04170000
C        0.02610000       1.21930000       0.01420000
O       -1.09950000       2.00750000       0.03950000
C       -0.63140000       3.39450000       0.04210000
C        0.59010000       3.29320000      -0.88300000
C        1.22550000       2.18130000      -0.02410000
C        1.22110000       2.78070000       1.39870000
C        1.29710000       4.27430000       1.59050000
C       -0.05040000       3.61410000       1.43810000
H       -1.46340000       4.02420000      -0.26810000
H        0.30800000       2.94940000      -1.88020000
H        1.17870000       4.20460000      -0.97450000
H        2.14750000       1.71380000      -0.36220000
H        1.49370000       2.12780000       2.21890000
H        1.54410000       4.59740000       2.59630000
H        1.69600000       4.92580000       0.82250000
H       -0.73360000       3.57380000       2.27760000
