16
Properties=species:S:1:pos:R:3 gdb_127177=T pbc="F F F"
C       -0.33870000       1.41790000       0.02870000
N        0.03040000       0.00690000       0.02320000
C        0.38690000      -0.60160000       1.20050000
O        0.36320000      -0.07770000       2.29270000
C        0.03900000      -0.69660000      -1.19250000
C       -0.35360000      -2.00510000      -1.41880000
N       -0.14450000      -2.23010000      -2.73950000
N        0.33050000      -1.16100000      -3.39700000
C        0.45090000      -0.22330000      -2.46230000
H        0.41950000       2.02910000      -0.47360000
H       -1.29790000       1.55980000      -0.47730000
H       -0.41440000       1.73140000       1.06960000
H        0.70850000      -1.64630000       1.03490000
H       -0.76190000      -2.75640000      -0.76330000
H       -0.31400000      -3.08020000      -3.24960000
H        0.82010000       0.75590000      -2.72620000
