20
Properties=species:S:1:pos:R:3 gdb_41410=T pbc="F F F"
C       -0.06090000       1.46760000       0.02010000
C        1.49630000       1.55510000      -0.08610000
C        1.54120000       0.04000000      -0.28390000
C        2.50560000      -1.00190000       0.22880000
C        1.83630000      -2.29720000      -0.31470000
C        0.97030000      -1.78090000      -1.46940000
C       -0.13310000      -0.80030000      -1.24030000
C        0.02060000      -0.09340000       0.08170000
N        1.23630000      -0.35270000      -1.73120000
H       -0.48360000       1.93210000       0.91320000
H       -0.59550000       1.84720000      -0.85380000
H        1.91530000       2.14970000      -0.90110000
H        1.95650000       1.86500000       0.85670000
H        3.50310000      -0.86210000      -0.20420000
H        2.60230000      -0.99360000       1.31830000
H        2.57120000      -3.02120000      -0.67610000
H        1.23910000      -2.79780000       0.45400000
H        0.88720000      -2.38690000      -2.36650000
H       -0.99980000      -0.76280000      -1.89750000
H       -0.35680000      -0.56040000       0.99520000
