20
Properties=species:S:1:pos:R:3 gdb_56886=T pbc="F F F"
C       -0.20160000       1.53940000      -0.18490000
C       -0.04190000       0.01520000      -0.02120000
C       -1.34990000      -0.64770000       0.00180000
N       -2.37520000      -1.18120000       0.02400000
C        0.85470000      -0.56160000      -1.13100000
C        0.92140000      -2.08400000      -1.36310000
C        0.48830000      -1.73820000      -2.80780000
C       -0.77340000      -2.36170000      -3.36360000
O        0.30890000      -0.33850000      -2.44120000
H        0.77750000       2.02170000      -0.11310000
H       -0.63010000       1.76480000      -1.16360000
H       -0.85080000       1.95330000       0.58970000
H        0.44530000      -0.19930000       0.93970000
H        1.84200000      -0.08720000      -1.02760000
H        1.90200000      -2.54570000      -1.24260000
H        0.17540000      -2.65600000      -0.80750000
H        1.31110000      -1.82550000      -3.53020000
H       -1.59330000      -2.28970000      -2.64410000
H       -1.07340000      -1.85430000      -4.28600000
H       -0.59930000      -3.41790000      -3.59770000
