20
Properties=species:S:1:pos:R:3 gdb_113898=T pbc="F F F"
C        0.42640000       1.13670000       0.56960000
C       -0.28740000       0.13970000      -0.35230000
C        0.68400000      -0.57850000      -1.25610000
O        1.51040000      -1.59790000      -0.66730000
C        0.58010000      -1.98090000      -1.69860000
C       -0.52800000      -2.93700000      -1.31470000
C       -0.02240000      -4.34340000      -0.95750000
N        0.93790000      -4.35560000       0.01030000
O       -0.47670000      -5.34910000      -1.46500000
H        1.15200000       0.62130000       1.20590000
H        0.96600000       1.89530000      -0.00760000
H       -0.28830000       1.65350000       1.21610000
H       -0.84730000      -0.58150000       0.24990000
H       -1.01700000       0.66590000      -0.98130000
H        1.24940000       0.08840000      -1.91210000
H        1.07380000      -2.23400000      -2.63870000
H       -1.09160000      -2.55230000      -0.45960000
H       -1.22040000      -3.05540000      -2.15120000
H        1.39110000      -3.49980000       0.29120000
H        1.36420000      -5.23950000       0.23620000
