15
Properties=species:S:1:pos:R:3 gdb_125199=T pbc="F F F"
C       -0.01130000       1.54190000       0.09750000
C        0.01540000       0.05660000      -0.04090000
C       -0.01990000      -0.80320000      -1.12100000
N       -0.08600000      -0.94630000      -2.47820000
N       -0.07260000      -2.27900000      -2.81340000
N       -0.00190000      -2.99750000      -1.74850000
C        0.03410000      -2.14790000      -0.66210000
C        0.10380000      -2.12350000       0.72080000
N        0.09060000      -0.79310000       1.05520000
H        0.89010000       1.93470000       0.58550000
H       -0.07100000       2.00600000      -0.88990000
H       -0.87650000       1.89480000       0.67350000
H       -0.13860000      -0.26960000      -3.21850000
H        0.15940000      -2.89530000       1.46860000
H        0.13130000      -0.45910000       2.00430000
