16
Properties=species:S:1:pos:R:3 gdb_28728=T pbc="F F F"
N       -0.24800000       1.53770000      -0.11900000
C       -0.06560000       0.14110000      -0.05150000
C       -0.85600000      -0.89600000       0.38270000
C       -0.09860000      -2.10620000       0.26520000
C        1.12460000      -1.74840000      -0.23730000
N        1.15130000      -0.39130000      -0.42490000
O        2.22940000      -2.46530000      -0.59790000
C        2.67440000      -3.40640000       0.28010000
N        3.57120000      -4.21110000      -0.08440000
H       -0.47890000       1.85240000      -1.05770000
H       -1.00130000       1.82620000       0.49320000
H       -1.87640000      -0.80960000       0.72340000
H       -0.43050000      -3.10930000       0.47990000
H        1.95980000       0.14110000      -0.69780000
H        2.17250000      -3.34180000       1.25220000
H        3.81360000      -4.83040000       0.68620000
