17
Properties=species:S:1:pos:R:3 gdb_23451=T pbc="F F F"
C       -0.20890000       1.50080000      -0.10350000
N        0.05160000       0.07760000       0.04920000
C        1.38600000      -0.51330000      -0.13660000
C        2.58810000       0.37380000      -0.04990000
C        2.70080000       0.94000000       1.16390000
C        1.62070000       0.45410000       2.03260000
N        1.38550000       0.67340000       3.27190000
O        2.32790000       1.54300000       3.83160000
C        0.74190000      -0.45600000       1.22220000
H        0.61320000       2.16390000       0.19640000
H       -0.44680000       1.69760000      -1.15370000
H       -1.08820000       1.75080000       0.49770000
H        1.41240000      -1.40580000      -0.75470000
H        3.24950000       0.55300000      -0.88940000
H        3.43690000       1.66510000       1.48070000
H        2.03520000       1.60090000       4.74760000
H        0.26460000      -1.29670000       1.71430000
