20
Properties=species:S:1:pos:R:3 gdb_126305=T pbc="F F F"
C        0.09120000       1.53820000      -0.27440000
C        0.01370000       0.02230000      -0.01560000
C       -1.38720000      -0.48120000       0.14620000
C       -2.19830000      -0.59640000       1.26140000
C       -3.43400000      -1.08800000       0.76570000
N       -4.60450000      -1.32710000       1.47150000
C       -4.51160000      -1.68210000       2.87580000
N       -3.39590000      -1.27890000      -0.55240000
N       -2.14120000      -0.88910000      -0.90080000
H        1.13120000       1.86180000      -0.38210000
H       -0.44630000       1.80930000      -1.18840000
H       -0.35850000       2.09580000       0.55210000
H        0.50300000      -0.51480000      -0.83790000
H        0.58030000      -0.22290000       0.88870000
H       -1.93170000      -0.35680000       2.27750000
H       -5.24130000      -1.90410000       0.94010000
H       -5.51610000      -1.87810000       3.25900000
H       -3.88320000      -2.56530000       3.07430000
H       -4.10230000      -0.84340000       3.44890000
H       -1.86390000      -0.96000000      -1.86430000
