19
Properties=species:S:1:pos:R:3 gdb_79055=T pbc="F F F"
C       -0.01350000       1.50240000       0.09190000
C       -0.06850000       0.01120000       0.01070000
C        0.06210000      -0.77450000      -1.06570000
C        0.01300000      -2.21260000      -0.65660000
C        0.88930000      -2.68300000       0.52440000
C       -0.55490000      -2.28750000       0.73360000
C       -0.08450000      -0.88360000       1.23680000
C        1.36320000      -1.51810000       1.37780000
O        1.63260000      -2.00840000       2.67590000
H        0.85090000       1.84450000       0.67670000
H        0.05510000       1.95630000      -0.90070000
H       -0.90350000       1.90720000       0.59090000
H        0.21000000      -0.44290000      -2.08650000
H       -0.22970000      -2.98850000      -1.37390000
H        1.34550000      -3.66550000       0.52450000
H       -1.41350000      -2.86720000       1.04870000
H       -0.49390000      -0.46790000       2.15860000
H        2.19470000      -0.90020000       1.00610000
H        1.76710000      -1.24890000       3.25230000
