14
Properties=species:S:1:pos:R:3 gdb_1256=T pbc="F F F"
C       -0.58950000       1.73080000       0.15620000
N       -0.88750000       0.37340000       0.56530000
C       -0.25320000      -0.55870000      -0.00910000
N       -0.48630000      -1.88330000       0.32350000
C        0.22450000      -2.93640000      -0.23940000
N       -0.14690000      -4.17430000       0.24830000
O        1.11200000      -2.77750000      -1.05210000
H        0.17600000       1.80060000      -0.63260000
H       -1.50350000       2.21600000      -0.20610000
H       -0.24660000       2.30980000       1.02170000
H        0.50580000      -0.44580000      -0.78860000
H       -1.14740000      -2.03990000       1.06980000
H       -1.08580000      -4.30980000       0.58950000
H        0.22760000      -4.94230000      -0.28660000
