12
Properties=species:S:1:pos:R:3 gdb_21098=T pbc="F F F"
C        0.00760000       1.43910000       0.04350000
N       -0.02750000      -0.01190000       0.03290000
N       -0.22080000      -0.71790000      -1.08830000
N       -0.19510000      -1.97130000      -0.74020000
C        0.01610000      -1.98770000       0.60190000
C        0.12250000      -3.18990000       1.45430000
O        0.03200000      -4.31940000       1.04810000
N        0.12460000      -0.75700000       1.10780000
H        0.97650000       1.78010000       0.41290000
H       -0.14580000       1.77260000      -0.98180000
H       -0.78530000       1.82070000       0.68940000
H        0.29670000      -2.94820000       2.52290000
