20
Properties=species:S:1:pos:R:3 gdb_63111=T pbc="F F F"
C       -0.05210000       1.56710000       0.01870000
C        0.01140000       0.05250000       0.08320000
C       -1.25430000      -0.61110000      -0.42910000
N        1.20560000      -0.71940000      -0.32370000
C        2.43150000       0.04750000       0.09160000
C        2.03400000       0.03940000       1.58470000
C        0.74720000      -0.68370000       1.15990000
C        0.21340000      -1.79980000       1.86910000
C       -0.22220000      -2.71670000       2.51650000
H        0.78460000       2.07140000       0.50320000
H       -0.08630000       1.89550000      -1.02650000
H       -0.97040000       1.91510000       0.50240000
H       -1.46870000      -0.26730000      -1.44650000
H       -1.14450000      -1.69600000      -0.45030000
H       -2.10980000      -0.35850000       0.20590000
H        3.31690000      -0.55260000      -0.12470000
H        2.53870000       1.01840000      -0.40050000
H        2.67760000      -0.60150000       2.18810000
H        1.90710000       0.99490000       2.10100000
H       -0.60930000      -3.53140000       3.07670000
