15
Properties=species:S:1:pos:R:3 gdb_98063=T pbc="F F F"
C       -0.15800000       1.38780000      -0.76180000
N        0.20960000       0.03320000      -1.12530000
C        0.92310000      -0.76220000      -0.29800000
O        1.33320000      -0.46850000       0.80670000
C        1.22550000      -2.18190000      -0.85440000
O        1.85640000      -2.95970000      -0.18490000
C        0.73680000      -2.64130000      -2.26260000
N        1.11560000      -3.90350000      -2.52370000
O        0.09130000      -1.93460000      -3.02470000
H        0.23690000       1.58940000       0.23430000
H        0.26240000       2.11030000      -1.46970000
H       -1.24680000       1.50740000      -0.74930000
H       -0.06060000      -0.36020000      -2.02230000
H        1.64790000      -4.40480000      -1.83010000
H        0.86810000      -4.32960000      -3.40100000
