19
Properties=species:S:1:pos:R:3 gdb_89805=T pbc="F F F"
C        0.23810000       1.55510000      -0.09770000
C        0.05110000       0.05270000       0.04180000
O        0.61710000      -0.58460000      -1.11410000
C        1.16890000      -1.82890000      -0.75120000
C        0.62700000      -3.09250000      -1.37420000
C        1.98250000      -2.53890000      -1.78050000
C        1.47530000      -1.75920000       0.70960000
O        2.19230000      -0.57090000       1.08260000
C        0.76770000      -0.58620000       1.22090000
H        1.30380000       1.79600000      -0.09360000
H       -0.19910000       1.90500000      -1.03650000
H       -0.25110000       2.08160000       0.72800000
H       -1.02080000      -0.19560000       0.12070000
H        0.59020000      -4.00100000      -0.78110000
H       -0.18960000      -2.97010000      -2.07630000
H        2.05450000      -2.06010000      -2.75040000
H        2.87830000      -3.06100000      -1.46290000
H        1.68420000      -2.65450000       1.28760000
H        0.37340000      -0.49820000       2.22980000
