15
Properties=species:S:1:pos:R:3 gdb_25905=T pbc="F F F"
N        0.04830000       1.27730000      -0.04970000
C       -0.00070000      -0.09010000      -0.07930000
O        1.03770000      -0.75440000      -0.16380000
C       -1.30480000      -0.74100000      -0.03950000
C       -2.59690000      -0.23170000      -0.00720000
N       -3.45080000      -1.28230000       0.03110000
C       -2.75940000      -2.48490000       0.02160000
C       -1.42130000      -2.17380000      -0.02560000
O       -0.38800000      -3.03150000      -0.05310000
H        0.96260000       1.68290000       0.07420000
H       -0.73730000       1.80710000       0.28720000
H       -2.96390000       0.78220000      -0.02930000
H       -4.45230000      -1.20530000       0.04790000
H       -3.26810000      -3.43250000       0.04640000
H        0.40870000      -2.46070000      -0.11370000
