18
Properties=species:S:1:pos:R:3 gdb_70199=T pbc="F F F"
C       -0.15000000       1.54370000       0.02100000
C       -0.02810000       0.03760000       0.01500000
C       -0.79970000      -0.77600000       1.06210000
C        0.70520000      -0.64460000       1.12040000
O        1.54780000      -1.75060000       0.85810000
C        1.52080000      -2.38900000      -0.33620000
O        2.25750000      -3.31560000      -0.52900000
C        0.49300000      -1.92510000      -1.35790000
N        0.22840000      -0.49270000      -1.30180000
H        0.73050000       2.00010000      -0.44070000
H       -1.03520000       1.86360000      -0.54220000
H       -0.25300000       1.92760000       1.03950000
H       -1.38570000      -0.25340000       1.81050000
H       -1.20010000      -1.74240000       0.77660000
H        1.15100000      -0.05530000       1.91310000
H        0.89340000      -2.18610000      -2.33950000
H       -0.40140000      -2.55610000      -1.20140000
H       -0.53340000      -0.25760000      -1.93030000
