27
Properties=species:S:1:pos:R:3 gdb_101015=T pbc="F F F"
C       -0.15060000       1.62070000      -0.19820000
C       -0.09610000       0.08960000      -0.15500000
C        0.87070000      -0.54160000      -1.17770000
C        2.34110000      -0.20330000      -0.88000000
C        0.64480000      -2.05420000      -1.33050000
C        0.85930000      -2.87660000      -0.05870000
C        0.79650000      -4.40240000      -0.18980000
C       -0.44370000      -2.45360000      -2.29920000
C        1.00850000      -2.62900000      -2.68000000
H        0.81100000       2.07330000       0.06340000
H       -0.42450000       1.97900000      -1.19730000
H       -0.89460000       2.00540000       0.50660000
H        0.17910000      -0.23070000       0.85790000
H       -1.10220000      -0.30780000      -0.33860000
H        0.63080000      -0.10030000      -2.15620000
H        2.63480000      -0.52060000       0.12650000
H        3.00680000      -0.69850000      -1.59410000
H        2.52440000       0.87290000      -0.94820000
H        1.83530000      -2.61380000       0.36820000
H        0.11520000      -2.56290000       0.68430000
H       -0.16460000      -4.74700000      -0.58380000
H        1.58650000      -4.79090000      -0.83960000
H        0.92770000      -4.86550000       0.79310000
H       -1.02670000      -3.34650000      -2.10200000
H       -1.00820000      -1.66280000      -2.78340000
H        1.42710000      -1.95450000      -3.42040000
H        1.39650000      -3.63900000      -2.74100000
