18
Properties=species:S:1:pos:R:3 gdb_130175=T pbc="F F F"
N       -0.08980000       1.39680000       0.04350000
C        0.04230000       0.00780000      -0.02790000
N       -1.03390000      -0.77020000      -0.15720000
N       -0.55050000      -2.04990000      -0.09470000
C        0.78990000      -2.06840000       0.03350000
C        1.22190000      -0.76700000       0.08610000
C        2.70520000      -0.69370000       0.31120000
C        3.14300000      -2.17440000       0.04460000
C        1.87720000      -3.08040000       0.21140000
H        0.63540000       1.88940000      -0.46090000
H       -1.00330000       1.69470000      -0.27600000
H       -1.19750000      -2.81190000      -0.18900000
H        3.23370000      -0.00200000      -0.35460000
H        2.94920000      -0.38420000       1.33640000
H        3.49890000      -2.25810000      -0.98660000
H        3.96270000      -2.49110000       0.69450000
H        1.83680000      -3.54070000       1.20750000
H        1.85970000      -3.89840000      -0.51680000
