20
Properties=species:S:1:pos:R:3 gdb_13875=T pbc="F F F"
C        0.06840000       1.55090000      -0.01250000
C        0.03490000       0.02170000      -0.01750000
O        0.79490000      -0.50590000       1.06980000
C       -1.38640000      -0.55050000      -0.02680000
C       -2.22670000      -0.17420000      -1.28140000
C       -3.03260000      -1.42200000      -1.55330000
C       -2.60380000      -2.46060000      -0.83920000
C       -1.43360000      -2.10310000       0.04330000
H        1.10250000       1.90450000       0.02180000
H       -0.41210000       1.96960000      -0.90200000
H       -0.45720000       1.94570000       0.86660000
H        0.55860000      -0.34390000      -0.91120000
H        0.39550000      -0.18350000       1.88560000
H       -1.90960000      -0.15590000       0.85630000
H       -2.84980000       0.71220000      -1.11680000
H       -1.58150000       0.06370000      -2.14140000
H       -3.83690000      -1.44800000      -2.28050000
H       -3.00720000      -3.46610000      -0.89490000
H       -0.50230000      -2.54770000      -0.33470000
H       -1.54140000      -2.46980000       1.06970000
