14
Properties=species:S:1:pos:R:3 gdb_133194=T pbc="F F F"
C       -0.23500000       1.47220000       0.01390000
C        0.00230000      -0.00460000      -0.02610000
N        0.05390000      -0.60710000      -1.17360000
N        0.27000000      -1.93680000      -1.14950000
C        0.44360000      -2.73320000      -0.03010000
N        0.64320000      -3.99160000      -0.12970000
C        0.35660000      -1.89740000       1.17470000
F        0.50820000      -2.55340000       2.31220000
N        0.15500000      -0.64430000       1.20130000
H        0.59570000       1.97840000       0.51680000
H       -0.33910000       1.86410000      -0.99810000
H       -1.14070000       1.69750000       0.58660000
H        0.30690000      -2.38850000      -2.05230000
H        0.74680000      -4.40380000       0.79470000
