23
Properties=species:S:1:pos:R:3 gdb_83277=T pbc="F F F"
C       -0.24550000       1.51750000      -0.11310000
C       -0.02290000       0.02310000      -0.01310000
C        1.32690000      -0.62550000      -0.20510000
C        2.60290000       0.17940000      -0.37630000
O        2.81390000       1.14780000       0.63900000
C        2.75020000       0.59390000       1.95080000
C        3.31170000       1.63500000       2.90700000
C        1.30760000       0.18610000       2.28210000
C        0.67190000      -0.63770000       1.16430000
H        0.62070000       2.08280000       0.23450000
H       -0.43570000       1.80780000      -1.15260000
H       -1.11780000       1.82420000       0.47610000
H       -0.85100000      -0.55940000      -0.41110000
H        1.34220000      -1.56330000      -0.75400000
H        3.45800000      -0.51850000      -0.39890000
H        2.60490000       0.73430000      -1.32110000
H        3.38640000      -0.30870000       1.97880000
H        2.71520000       2.55180000       2.86380000
H        3.29610000       1.26100000       3.93550000
H        4.34230000       1.88530000       2.64170000
H        1.30880000      -0.39500000       3.21050000
H        0.72330000       1.09230000       2.48400000
H        0.24580000      -1.58330000       1.48440000
