23
Properties=species:S:1:pos:R:3 gdb_100724=T pbc="F F F"
C        0.01950000       1.55200000      -0.06760000
C       -0.01660000       0.02240000      -0.09610000
C       -1.42580000      -0.57130000       0.08310000
C       -1.42120000      -2.10040000      -0.04080000
N       -2.06630000      -0.13570000       1.33340000
C       -1.55280000      -0.60790000       2.60650000
C       -3.16890000       0.68580000       1.25240000
N       -3.77870000       0.98500000       2.47050000
O       -3.57550000       1.17220000       0.20800000
H        1.03090000       1.92380000      -0.25880000
H       -0.64970000       1.97510000      -0.82290000
H       -0.30160000       1.93900000       0.90410000
H        0.36890000      -0.33950000      -1.05730000
H        0.66470000      -0.38370000       0.66490000
H       -2.06590000      -0.15760000      -0.69870000
H       -1.02840000      -2.39770000      -1.01790000
H       -0.79210000      -2.57290000       0.72190000
H       -2.43410000      -2.50280000       0.05490000
H       -1.56490000       0.19530000       3.34860000
H       -2.11440000      -1.46510000       3.00840000
H       -0.51570000      -0.92700000       2.48700000
H       -3.80120000       0.27280000       3.18420000
H       -4.66720000       1.44020000       2.32420000
