16
Properties=species:S:1:pos:R:3 gdb_43070=T pbc="F F F"
O        0.02080000       0.01990000       0.22570000
C       -0.05650000       1.19610000       0.03920000
C       -1.16890000       2.23710000      -0.06540000
C       -1.43760000       2.88600000       1.34320000
C       -0.19810000       3.84570000       1.16250000
C        1.08850000       3.42120000       1.84590000
C        1.71010000       2.48890000       1.12050000
N        0.99060000       2.19110000      -0.09520000
C       -0.02600000       3.27600000      -0.26570000
H       -2.01890000       2.06330000      -0.72300000
H       -2.38040000       3.43710000       1.33300000
H       -1.42790000       2.21280000       2.20210000
H       -0.43460000       4.90500000       1.26520000
H        1.43100000       3.80450000       2.79820000
H        2.61490000       1.94170000       1.34580000
H        0.11830000       3.91140000      -1.13870000
