19
Properties=species:S:1:pos:R:3 gdb_80754=T pbc="F F F"
O        0.30490000       1.29570000      -0.01600000
C        0.02550000      -0.07430000       0.04490000
C       -0.51040000      -0.64770000       1.32280000
C       -1.11370000       0.30070000       2.34950000
C       -2.13650000       1.18400000       1.58190000
C       -2.53430000       0.34880000       0.33130000
C       -1.38590000      -0.61710000       0.07690000
C       -3.34200000       1.50780000       2.43130000
O       -3.73070000       2.61250000       2.70830000
H        0.14160000       1.59480000      -0.91660000
H        0.75220000      -0.69830000      -0.47640000
H       -0.07050000      -1.56970000       1.68740000
H       -1.62250000      -0.29580000       3.11830000
H       -0.36830000       0.91750000       2.85910000
H       -1.66810000       2.11840000       1.27790000
H       -3.44290000      -0.23420000       0.53250000
H       -2.75950000       0.99930000      -0.52020000
H       -1.59720000      -1.51590000      -0.49310000
H       -3.88100000       0.60060000       2.80370000
