22
Properties=species:S:1:pos:R:3 gdb_115613=T pbc="F F F"
C       -0.11420000       1.23800000      -0.26540000
C       -0.08540000      -0.22780000       0.09050000
N        1.22230000      -0.91330000      -0.03470000
C        0.62270000      -0.75130000       1.28550000
C        1.23840000       0.03020000       2.45110000
C        0.40390000      -0.86050000       3.41900000
C        0.12500000      -1.84720000       2.24440000
C       -1.27840000      -2.40090000       2.07030000
O       -1.43170000      -3.10980000       0.84250000
H        0.80050000       1.73690000       0.06560000
H       -0.19380000       1.37160000      -1.34970000
H       -0.97150000       1.73880000       0.19860000
H       -0.95400000      -0.80100000      -0.22670000
H        1.07390000      -1.86680000      -0.35960000
H        2.31440000      -0.14750000       2.53640000
H        1.05810000       1.10720000       2.48770000
H        0.91740000      -1.26570000       4.29280000
H       -0.51130000      -0.36170000       3.75180000
H        0.84360000      -2.67970000       2.26930000
H       -1.55260000      -3.03200000       2.93070000
H       -2.00190000      -1.57980000       2.02630000
H       -0.88200000      -3.89870000       0.88850000
