23
Properties=species:S:1:pos:R:3 gdb_90320=T pbc="F F F"
C       -0.87180000       1.08530000      -0.00380000
C       -0.38330000      -0.35760000       0.01010000
C        0.84410000      -0.59440000      -0.96020000
C        1.69690000      -0.58650000       0.28320000
C        2.75300000      -0.05100000       0.88330000
C        2.52550000      -0.03440000       2.38890000
C        0.97460000      -0.25800000       2.57370000
C        0.27340000       1.02780000       3.02190000
C        0.54940000      -0.86870000       1.20240000
H       -0.04520000       1.79110000       0.12520000
H       -1.34470000       1.30590000      -0.96750000
H       -1.60930000       1.27790000       0.78010000
H       -1.22640000      -1.02970000      -0.17580000
H        0.79300000      -1.57280000      -1.44930000
H        1.03750000       0.16930000      -1.71900000
H        3.63100000       0.37910000       0.41460000
H        3.10380000      -0.81660000       2.90020000
H        2.84500000       0.91640000       2.83480000
H        0.80800000      -1.00590000       3.35610000
H        0.46730000       1.85850000       2.33800000
H       -0.81060000       0.89500000       3.09540000
H        0.63880000       1.32560000       4.01090000
H        0.35060000      -1.94230000       1.31700000
