20
Properties=species:S:1:pos:R:3 gdb_36341=T pbc="F F F"
C        0.01740000      -1.17640000      -0.51450000
C       -0.00970000      -0.03420000      -0.14140000
C       -0.00920000       1.34860000       0.32490000
C        1.37640000       1.97520000       0.30000000
N        1.77570000       2.62440000      -0.96180000
C        1.58790000       3.44010000       0.23260000
C        0.56290000       4.57110000       0.38750000
C        1.48600000       5.18020000       1.48490000
C        2.63620000       4.23720000       1.02030000
H        0.02860000      -2.18250000      -0.85290000
H       -0.67670000       1.95150000      -0.30070000
H       -0.40870000       1.38880000       1.34760000
H        2.13400000       1.39980000       0.83010000
H        2.76480000       2.47690000      -1.14840000
H        0.50890000       5.19010000      -0.51270000
H       -0.45290000       4.29800000       0.68430000
H        1.67820000       6.25280000       1.42600000
H        1.14170000       4.94190000       2.49390000
H        3.19970000       3.70540000       1.79190000
H        3.34480000       4.74710000       0.35830000
