18
Properties=species:S:1:pos:R:3 gdb_22576=T pbc="F F F"
O       -0.01050000       1.38000000      -0.00860000
N        0.07890000      -0.02040000      -0.00100000
C       -1.06400000      -0.59060000      -0.00300000
C       -2.41160000       0.08560000       0.01720000
C       -3.28030000      -0.46030000       1.17700000
C       -3.29930000      -1.98390000       1.21940000
O       -4.32500000      -2.61900000       1.28940000
C       -1.92580000      -2.64270000       1.17090000
C       -1.07540000      -2.09680000      -0.00060000
H        0.91660000       1.63920000       0.00700000
H       -2.29980000       1.16640000       0.09560000
H       -2.91920000      -0.12470000      -0.93390000
H       -2.86020000      -0.10690000       2.12850000
H       -4.30840000      -0.09850000       1.10940000
H       -1.41210000      -2.41840000       2.11550000
H       -2.05680000      -3.72490000       1.10480000
H       -1.51090000      -2.45150000      -0.94510000
H       -0.05150000      -2.47300000       0.05050000
