18
Properties=species:S:1:pos:R:3 gdb_130046=T pbc="F F F"
N       -0.01070000       1.21960000       0.47810000
C        0.10230000      -0.12920000       0.13750000
N       -0.91860000      -0.96180000       0.31380000
N       -0.42540000      -2.18930000      -0.02030000
C        0.86450000      -2.11910000      -0.42880000
C        1.25730000      -0.80270000      -0.33520000
C       -1.29400000      -3.32200000      -0.06170000
C       -0.84410000      -4.59970000       0.59870000
C       -1.94310000      -3.77180000       1.21550000
H        0.47100000       1.83400000      -0.16420000
H       -0.97970000       1.49630000       0.57240000
H        1.39730000      -3.00230000      -0.74450000
H        2.23050000      -0.39070000      -0.54700000
H       -1.87880000      -3.40440000      -0.97440000
H       -1.09950000      -5.53360000       0.11130000
H        0.12210000      -4.59420000       1.08930000
H       -1.70760000      -3.20030000       2.10450000
H       -2.96360000      -4.13180000       1.15970000
