16
Properties=species:S:1:pos:R:3 gdb_10323=T pbc="F F F"
C       -0.41250000       0.88900000       0.52640000
C        0.30230000      -0.39900000       0.12070000
N        0.73690000      -0.39760000      -1.28620000
C        2.04120000      -0.09070000      -1.57830000
O        2.55180000      -0.02300000      -2.68100000
C       -0.27990000      -0.70820000      -2.25300000
N        0.12610000      -0.68920000      -3.53880000
O       -1.40640000      -0.96480000      -1.87710000
H        0.23670000       1.76080000       0.39620000
H       -1.31280000       1.02540000      -0.07600000
H       -0.70660000       0.83670000       1.57930000
H        1.19380000      -0.55800000       0.73410000
H       -0.35860000      -1.25560000       0.25550000
H        2.62690000       0.09890000      -0.66180000
H        1.08480000      -0.45980000      -3.76850000
H       -0.56850000      -0.89850000      -4.23420000
