17
Properties=species:S:1:pos:R:3 gdb_41115=T pbc="F F F"
C        0.03670000       1.41990000       0.19220000
O        1.42480000       1.55120000      -0.23960000
C        1.39210000       0.23080000      -0.74310000
C        2.41340000      -0.84350000      -0.60320000
C        1.93400000      -1.89260000      -1.29510000
C        0.70540000      -1.50030000      -2.04940000
C       -0.46150000      -0.66580000      -1.35190000
C        0.66660000      -0.01030000      -2.11130000
C        0.01720000      -0.11600000      -0.04070000
H       -0.07590000       1.73100000       1.23470000
H       -0.63810000       2.00480000      -0.44360000
H        3.23020000      -0.83520000       0.10580000
H        2.32790000      -2.90090000      -1.27950000
H        0.36220000      -2.08750000      -2.89270000
H       -1.47870000      -0.86180000      -1.67210000
H        0.68530000       0.61800000      -2.99390000
H       -0.02270000      -0.72020000       0.86790000
