17
Properties=species:S:1:pos:R:3 gdb_46562=T pbc="F F F"
N        0.05090000       1.34160000      -0.15010000
C       -0.02100000       0.09450000       0.00730000
O        1.09160000      -0.73990000       0.06970000
C        0.75410000      -2.12390000       0.34270000
C       -0.68350000      -2.00550000       0.77460000
C       -2.11710000      -2.59960000       0.83490000
C       -2.18260000      -1.07700000       1.23570000
N       -0.93850000      -1.23860000       2.07360000
C       -1.24150000      -0.78410000       0.03290000
H        1.02700000       1.64280000      -0.18450000
H        0.87940000      -2.71980000      -0.56880000
H        1.43490000      -2.48710000       1.11660000
H       -2.58220000      -2.91400000      -0.10470000
H       -2.31950000      -3.30630000       1.64420000
H       -3.04710000      -0.50920000       1.58010000
H       -1.11900000      -1.91080000       2.82550000
H       -1.66120000      -0.95390000      -0.96070000
