17
Properties=species:S:1:pos:R:3 gdb_68468=T pbc="F F F"
O       -0.03470000       1.39870000      -0.07290000
C       -0.01020000       0.02350000       0.03160000
C        0.25580000      -0.67590000       1.40720000
C       -0.58840000      -1.84560000       0.84270000
C       -1.33110000      -0.81430000      -0.04280000
O        0.19790000      -2.74240000       0.06790000
C        1.03100000      -2.12820000      -0.90300000
C        0.94680000      -0.60530000      -0.95560000
O        1.59510000       0.06370000      -1.72850000
H        0.59230000       1.62370000      -0.78010000
H        1.28430000      -0.88060000       1.71370000
H       -0.27270000      -0.13790000       2.19740000
H       -1.16130000      -2.46730000       1.52900000
H       -2.12060000      -0.29910000       0.50890000
H       -1.70370000      -1.14120000      -1.01650000
H        2.07910000      -2.39830000      -0.71550000
H        0.77990000      -2.51090000      -1.90160000
