16
Properties=species:S:1:pos:R:3 gdb_49607=T pbc="F F F"
N        0.08780000       1.28620000      -0.05360000
C       -0.02910000       0.02510000       0.00630000
N       -1.23730000      -0.65590000      -0.04400000
C       -1.29310000      -2.09370000      -0.01380000
C       -1.96150000      -2.74890000       1.17810000
C       -2.75290000      -2.44250000      -0.08080000
N       -3.41050000      -1.17880000      -0.18620000
C       -2.54360000      -0.09780000      -0.05440000
O       -2.85470000       1.05740000       0.05100000
H        1.07330000       1.53830000      -0.00070000
H        0.80280000      -0.68580000       0.09740000
H       -0.53920000      -2.61670000      -0.58960000
H       -1.71700000      -3.78970000       1.36060000
H       -2.14050000      -2.14620000       2.06170000
H       -3.12680000      -3.24550000      -0.70560000
H       -4.36710000      -1.03470000       0.09420000
