20
Properties=species:S:1:pos:R:3 gdb_15911=T pbc="F F F"
C       -0.12480000       1.51370000      -0.11620000
O       -0.07640000       0.15180000       0.25350000
C       -1.29960000      -0.52050000       0.11800000
C       -1.57080000      -1.25240000      -1.23250000
C       -0.58200000      -1.08270000      -2.36790000
O       -1.44270000      -2.54050000      -0.58410000
C       -1.27780000      -1.94290000       0.72430000
C       -0.02330000      -2.41170000       1.43260000
H        0.86280000       1.93660000       0.08270000
H       -0.35830000       1.64840000      -1.18160000
H       -0.87410000       2.06250000       0.47480000
H       -2.12420000       0.11750000       0.46350000
H       -2.60000000      -1.10740000      -1.59180000
H        0.44320000      -1.07230000      -1.99100000
H       -0.68990000      -1.91530000      -3.06990000
H       -0.76700000      -0.15210000      -2.91550000
H       -2.16160000      -2.14190000       1.34710000
H        0.86950000      -2.15900000       0.85800000
H        0.05650000      -1.94640000       2.42030000
H       -0.06520000      -3.49730000       1.56490000
