24
Properties=species:S:1:pos:R:3 gdb_118242=T pbc="F F F"
C       -0.08050000       1.49580000      -0.14900000
C        0.06750000      -0.02660000      -0.09540000
C        0.60940000      -0.53130000       1.24620000
C        0.82600000      -2.04920000       1.28550000
O        1.70790000      -2.48140000       0.24950000
C        1.30530000      -2.52360000       2.66170000
N        1.26020000      -3.97310000       2.77380000
C        2.44280000      -4.70730000       2.34680000
C        2.11180000      -4.57950000       3.79230000
H        0.88300000       1.99460000       0.00610000
H       -0.47130000       1.82380000      -1.11730000
H       -0.76570000       1.85810000       0.62580000
H       -0.90500000      -0.49860000      -0.28700000
H        0.73140000      -0.36980000      -0.89600000
H        1.56420000      -0.02960000       1.47110000
H       -0.07740000      -0.24740000       2.05460000
H       -0.11960000      -2.55950000       1.06730000
H        2.53920000      -2.00570000       0.36110000
H        2.32080000      -2.11740000       2.84780000
H        0.64860000      -2.10650000       3.43500000
H        2.25690000      -5.63380000       1.81170000
H        3.29180000      -4.13650000       1.97700000
H        2.74130000      -3.92070000       4.38950000
H        1.67520000      -5.40950000       4.34060000
