19
Properties=species:S:1:pos:R:3 gdb_85864=T pbc="F F F"
C       -0.77100000       1.40450000       0.02970000
C       -0.04320000       0.07200000      -0.02740000
O       -0.92460000      -0.98730000      -0.37890000
C        1.30390000      -0.01830000      -0.81760000
C        1.87980000      -0.93110000       0.31090000
O        3.21610000      -0.80070000       0.71590000
C        0.75040000      -0.40680000       1.20290000
C        0.88820000       0.23850000       2.51110000
O        0.21720000      -1.01910000       2.35070000
H       -0.10350000       2.21460000       0.33830000
H       -1.17680000       1.66530000      -0.95560000
H       -1.60680000       1.34770000       0.73390000
H       -1.27850000      -0.79430000      -1.25420000
H        1.24600000      -0.44280000      -1.82160000
H        1.82430000       0.94450000      -0.85770000
H        1.72980000      -1.98820000       0.07980000
H        3.38090000       0.12900000       0.90690000
H        1.84500000       0.18860000       3.02980000
H        0.24990000       1.07890000       2.77920000
