23
Properties=species:S:1:pos:R:3 gdb_52678=T pbc="F F F"
C        2.88250000       2.49570000      -1.08700000
C        1.99110000       1.35660000      -0.91140000
C        1.25990000       0.41060000      -0.75910000
C        0.31020000      -0.69040000      -0.58450000
C       -1.11250000      -0.20670000      -0.95010000
C        0.64410000      -1.96270000      -1.37890000
C        1.60200000      -1.98460000      -2.54520000
C        1.93950000      -2.73790000      -1.27950000
C        3.09270000      -2.33110000      -0.38710000
H        3.84320000       2.18910000      -1.51550000
H        2.44600000       3.24410000      -1.75780000
H        3.09060000       2.99010000      -0.13150000
H        0.29930000      -0.95760000       0.48270000
H       -1.84690000      -0.99070000      -0.73950000
H       -1.38050000       0.68330000      -0.37510000
H       -1.16910000       0.04230000      -2.01380000
H       -0.23860000      -2.58790000      -1.48980000
H        1.33210000      -2.53910000      -3.43760000
H        2.15440000      -1.06980000      -2.73320000
H        1.80620000      -3.81600000      -1.34150000
H        3.21390000      -1.24670000      -0.34970000
H        2.94310000      -2.68720000       0.63900000
H        4.03210000      -2.76320000      -0.75070000
