21
Properties=species:S:1:pos:R:3 gdb_104516=T pbc="F F F"
C        0.99310000      -0.13820000      -0.18630000
O        0.16820000      -0.53980000      -1.26570000
C       -1.14300000      -0.87450000      -0.91670000
C       -1.96440000       0.24390000      -0.27520000
C       -2.05060000       1.44650000      -1.09740000
C       -2.11460000       2.43630000      -1.77560000
C       -1.80870000      -1.79800000      -1.88860000
C       -1.43080000      -2.30830000      -0.50770000
C       -0.32310000      -3.32770000      -0.36030000
H        2.01130000      -0.07610000      -0.57750000
H        0.71050000       0.84980000       0.20130000
H        0.97210000      -0.86330000       0.63860000
H       -2.97120000      -0.14140000      -0.07640000
H       -1.54560000       0.50100000       0.70640000
H       -2.17270000       3.30820000      -2.37870000
H       -2.85300000      -1.63480000      -2.13170000
H       -1.19530000      -2.13200000      -2.71840000
H       -2.25830000      -2.43600000       0.18690000
H        0.51970000      -3.07950000      -1.01050000
H        0.04650000      -3.37560000       0.67000000
H       -0.67630000      -4.32870000      -0.63110000
