16
Properties=species:S:1:pos:R:3 gdb_30038=T pbc="F F F"
O        0.15120000       1.41110000      -0.17440000
C        0.04710000      -0.00080000      -0.04180000
C        0.61720000      -0.55850000       1.26570000
C       -0.31020000      -1.28330000       1.89970000
N       -1.50280000      -1.29460000       1.15290000
C       -2.77570000      -1.79340000       1.24670000
C       -3.46090000      -1.35140000       0.13430000
C       -2.56750000      -0.55980000      -0.65540000
C       -1.36250000      -0.54560000       0.00330000
H       -0.41200000       1.80110000       0.50400000
H        0.60760000      -0.39380000      -0.89930000
H        1.62520000      -0.36920000       1.60260000
H       -0.25810000      -1.81830000       2.83720000
H       -3.08190000      -2.41440000       2.07300000
H       -4.49270000      -1.57160000      -0.09440000
H       -2.79640000      -0.06870000      -1.58860000
