21
Properties=species:S:1:pos:R:3 gdb_63751=T pbc="F F F"
C       -0.20470000       1.54040000      -0.07800000
C       -0.08620000       0.02290000       0.00720000
O       -1.35630000      -0.60180000      -0.00410000
C        0.99070000      -0.57210000      -0.95950000
C        1.97510000      -0.62180000       0.23040000
C        3.11810000      -1.63850000       0.39140000
C        4.03590000      -0.40230000       0.42060000
O        2.91070000       0.48730000       0.27040000
C        0.77800000      -0.47300000       1.19540000
H        0.78020000       2.01160000      -0.01930000
H       -0.66350000       1.83990000      -1.02940000
H       -0.82690000       1.91880000       0.73950000
H       -1.87070000      -0.22080000      -0.72410000
H        0.69730000      -1.57540000      -1.28140000
H        1.30650000       0.02430000      -1.81960000
H        3.08640000      -2.22400000       1.31260000
H        3.25910000      -2.31120000      -0.45710000
H        4.57310000      -0.22650000       1.36050000
H        4.74300000      -0.31130000      -0.41280000
H        0.91830000       0.19990000       2.04470000
H        0.41680000      -1.44510000       1.54270000
