18
Properties=species:S:1:pos:R:3 gdb_46803=T pbc="F F F"
O        0.08270000       0.08100000       0.66680000
C        0.06190000       1.15600000       0.11470000
N       -1.04320000       1.97380000       0.21250000
C       -1.37980000       3.35230000      -0.13330000
C       -0.40530000       4.03430000      -1.07570000
C        0.04750000       3.10790000      -2.23840000
C        1.27310000       2.72380000      -1.37230000
C        1.05350000       4.01170000      -0.54310000
O        1.13770000       1.51830000      -0.63010000
H       -1.72150000       1.51550000       0.80210000
H       -2.37570000       3.34280000      -0.59660000
H       -1.46060000       3.95260000       0.78570000
H       -0.81370000       5.01060000      -1.34720000
H       -0.61870000       2.29810000      -2.54360000
H        0.35570000       3.67350000      -3.12100000
H        2.23110000       2.60810000      -1.87980000
H        1.64950000       4.84080000      -0.93260000
H        1.20870000       3.93360000       0.53610000
