17
Properties=species:S:1:pos:R:3 gdb_125099=T pbc="F F F"
C       -0.49630000       1.40140000      -0.10960000
C       -0.18860000      -0.06030000      -0.07350000
C        0.09980000      -0.94050000      -1.10110000
N        0.32640000      -2.12010000      -0.47000000
N        0.19000000      -1.99870000       0.87110000
N       -0.12120000      -0.75790000       1.09970000
N        0.27410000      -0.77520000      -2.47400000
C       -0.51840000      -1.58880000      -3.40370000
C       -0.78610000      -0.13340000      -3.25080000
H       -0.48530000       1.78880000       0.91140000
H        0.24200000       1.95740000      -0.69680000
H       -1.48340000       1.61490000      -0.53610000
H        0.60260000      -3.00230000      -0.86990000
H        0.02400000      -1.96050000      -4.26720000
H       -1.24680000      -2.27510000      -2.97850000
H       -1.69390000       0.15050000      -2.72610000
H       -0.44310000       0.56930000      -4.00320000
