21
Properties=species:S:1:pos:R:3 gdb_89449=T pbc="F F F"
C       -0.98800000       1.07780000      -0.01150000
C       -0.00670000      -0.08380000      -0.02540000
C        1.25950000       0.02680000      -0.92440000
C        2.13460000      -0.53610000       0.23930000
O        2.46840000      -1.90180000       0.10520000
C        3.28760000       0.36810000       0.72790000
C        2.60810000       1.25910000       1.74160000
C        1.35150000       0.88740000       1.99810000
C        0.92960000      -0.32050000       1.20850000
H       -0.48180000       2.02020000       0.22410000
H       -1.47190000       1.19320000      -0.98790000
H       -1.77760000       0.92690000       0.73360000
H       -0.53800000      -1.01460000      -0.24790000
H        1.26150000      -0.57230000      -1.83910000
H        1.50960000       1.06180000      -1.17690000
H        3.07750000      -1.98700000      -0.63640000
H        4.07900000      -0.23760000       1.19040000
H        3.75260000       0.93360000      -0.09070000
H        3.11750000       2.09140000       2.21630000
H        0.69670000       1.38120000       2.70850000
H        0.65560000      -1.16940000       1.84290000
