23
Properties=species:S:1:pos:R:3 gdb_115718=T pbc="F F F"
C       -0.19400000       1.49060000      -0.19370000
O       -0.24570000       0.26920000       0.51410000
C       -1.28740000      -0.58680000       0.08250000
C       -1.09800000      -1.34710000      -1.25810000
C       -1.49690000      -2.66180000      -0.53280000
C       -1.35470000      -1.94250000       0.84400000
C       -0.09770000      -2.29130000       1.65590000
C       -0.13750000      -3.71520000       2.19950000
O        1.08910000      -2.16630000       0.87970000
H        0.62530000       2.07800000       0.22740000
H       -0.00780000       1.33600000      -1.26610000
H       -1.13250000       2.05410000      -0.08210000
H       -2.24110000      -0.03970000       0.11890000
H       -1.71040000      -1.02970000      -2.10550000
H       -0.04650000      -1.35640000      -1.55500000
H       -2.52040000      -2.98000000      -0.74350000
H       -0.82550000      -3.50630000      -0.69460000
H       -2.22270000      -2.03090000       1.50530000
H       -0.05570000      -1.59420000       2.50800000
H       -0.19820000      -4.44380000       1.38510000
H        0.77370000      -3.92060000       2.76750000
H       -0.99980000      -3.85860000       2.85770000
H        1.15640000      -1.22630000       0.66650000
