20
Properties=species:S:1:pos:R:3 gdb_75148=T pbc="F F F"
C        0.49720000       1.40680000       0.12900000
C        0.07220000      -0.02170000       0.00470000
C        0.15360000      -0.80610000      -1.07120000
C       -0.41940000      -2.18000000      -0.84440000
C       -0.56290000      -2.24950000       0.71540000
C        0.65320000      -2.97440000       1.32930000
C       -0.58000000      -0.74960000       1.16070000
C       -1.79070000      -2.94310000       1.11210000
N       -2.75870000      -3.49180000       1.42660000
H        1.24380000       1.53160000       0.92340000
H        0.92570000       1.78200000      -0.80410000
H       -0.35100000       2.04950000       0.39690000
H        0.55260000      -0.49850000      -2.03180000
H       -1.39090000      -2.29560000      -1.34120000
H        0.21890000      -2.98970000      -1.21530000
H        1.56880000      -2.45630000       1.02960000
H        0.59630000      -2.98100000       2.42110000
H        0.70860000      -4.00960000       0.98210000
H       -0.04980000      -0.61300000       2.11070000
H       -1.60330000      -0.38690000       1.32110000
