17
Properties=species:S:1:pos:R:3 gdb_24599=T pbc="F F F"
C        0.08620000       1.56830000      -0.04560000
O        1.52060000       1.47930000       0.03730000
C        1.45760000       0.07410000       0.34360000
C       -0.06210000       0.02280000       0.02280000
C       -0.99820000      -0.58030000       1.00620000
C       -1.18460000      -0.40150000       2.35770000
N       -2.19520000      -1.20370000       2.83240000
C       -2.62670000      -1.86920000       1.78650000
N       -1.93950000      -1.53180000       0.65870000
H       -0.34850000       2.08760000       0.81830000
H       -0.24690000       2.05760000      -0.96780000
H        2.11940000      -0.52050000      -0.29620000
H        1.68920000      -0.13240000       1.39670000
H       -0.23920000      -0.39860000      -0.97070000
H       -0.64410000       0.26330000       3.01510000
H       -3.42230000      -2.59920000       1.78060000
H       -2.08540000      -1.90430000      -0.26510000
