16
Properties=species:S:1:pos:R:3 gdb_24660=T pbc="F F F"
C        0.43510000       1.55380000       0.18800000
N        1.20260000       0.39930000      -0.27790000
C       -0.21530000       0.21550000       0.11620000
C       -0.47150000      -0.59710000       1.33490000
N        0.29890000      -0.37860000       2.40780000
C        0.05310000      -1.13060000       3.47770000
C       -0.95300000      -2.09130000       3.50170000
C       -1.70260000      -2.22100000       2.33990000
N       -1.47280000      -1.48330000       1.25200000
H        0.73500000       1.92280000       1.16350000
H        0.11530000       2.30800000      -0.52650000
H        1.25930000       0.40500000      -1.29360000
H       -0.94420000       0.04150000      -0.66840000
H        0.68140000      -0.95460000       4.34870000
H       -1.14460000      -2.69780000       4.37840000
H       -2.51620000      -2.94040000       2.27290000
