20
Properties=species:S:1:pos:R:3 gdb_107836=T pbc="F F F"
O       -0.07650000       1.41340000       0.13340000
C       -0.01630000       0.00690000      -0.06660000
C       -1.42810000      -0.52330000      -0.02410000
C       -2.16490000      -0.51630000       1.34100000
N       -2.58300000      -1.95240000       1.19040000
C       -3.12400000      -2.11800000      -0.19400000
C       -3.63630000      -0.90050000      -0.95650000
C       -2.38110000      -0.00090000      -1.11160000
C       -1.66330000      -2.05910000       0.00180000
H        0.82120000       1.75780000       0.13290000
H        0.44320000      -0.23850000      -1.03920000
H        0.58840000      -0.48060000       0.71520000
H       -1.48720000      -0.44390000       2.19520000
H       -2.98460000       0.19790000       1.47610000
H       -3.62300000      -3.07420000      -0.31100000
H       -4.04870000      -1.20230000      -1.92380000
H       -4.44410000      -0.39820000      -0.41310000
H       -2.59350000       1.06390000      -0.98600000
H       -1.92850000      -0.13850000      -2.10120000
H       -0.94390000      -2.86130000      -0.12210000
