16
Properties=species:S:1:pos:R:3 gdb_83092=T pbc="F F F"
O        0.18300000       1.40050000      -0.08220000
C        0.03590000       0.02250000       0.03030000
C        0.20310000      -0.68610000       1.41260000
O       -0.49770000       0.06380000       2.42920000
C       -1.73080000       0.44110000       2.01860000
N       -2.25640000       0.17110000       0.89320000
C       -1.38340000      -0.63010000       0.02000000
C       -0.75860000      -1.77820000       0.85840000
O       -0.12830000      -2.71210000       0.01400000
H       -0.60280000       1.81690000       0.29190000
H        0.68470000      -0.45860000      -0.70040000
H        1.18230000      -0.93720000       1.82000000
H       -2.24270000       1.02980000       2.77570000
H       -1.87860000      -0.86850000      -0.92000000
H       -1.42560000      -2.24550000       1.59240000
H        0.42820000      -3.28310000       0.55440000
