13
Properties=species:S:1:pos:R:3 gdb_33268=T pbc="F F F"
C        0.07510000      -6.32290000      -0.06590000
C        0.06530000      -5.11350000      -0.04440000
C        0.05490000      -3.76140000      -0.01980000
C        0.04460000      -2.54290000       0.00200000
C        0.03460000      -1.19340000       0.02710000
C        0.03070000       0.01990000       0.05960000
C       -0.00800000       1.45230000       0.06730000
C        0.51560000       2.23540000       1.20830000
O        1.24720000       2.14960000      -0.00500000
H        0.08370000      -7.38470000      -0.08580000
H       -0.79800000       1.90060000      -0.53440000
H        0.06780000       3.20400000       1.42640000
H        0.94480000       1.70600000       2.05640000
