18
Properties=species:S:1:pos:R:3 gdb_85074=T pbc="F F F"
C        0.04850000       1.59690000       0.04830000
C        0.06720000       0.05410000       0.00630000
N        0.70580000      -0.44420000      -1.20430000
C        1.96090000      -0.96170000      -1.32500000
O        2.39590000      -1.39970000      -2.37150000
C        2.80770000      -0.93020000      -0.04580000
O        3.53490000       0.30770000      -0.11870000
C        1.97450000      -0.99140000       1.20690000
C        0.73650000      -0.50750000       1.23000000
H        1.07630000       1.96860000       0.04290000
H       -0.47860000       1.99850000      -0.82280000
H       -0.45790000       1.95710000       0.94960000
H       -0.97240000      -0.30180000      -0.00740000
H        0.18770000      -0.39830000      -2.06980000
H        3.49970000      -1.77840000      -0.11340000
H        4.02670000       0.40300000       0.70420000
H        2.43860000      -1.38500000       2.10790000
H        0.16000000      -0.46940000       2.14960000
