17
Properties=species:S:1:pos:R:3 gdb_126204=T pbc="F F F"
C        0.03390000       1.56870000       0.11840000
C       -0.00480000       0.03150000       0.02590000
C       -1.39460000      -0.51690000      -0.07570000
C       -2.23950000      -0.74280000      -1.16450000
C       -1.95190000      -0.54100000      -2.57560000
O       -2.73710000      -0.74670000      -3.47680000
C       -3.44640000      -1.22760000      -0.59030000
N       -3.37310000      -1.30060000       0.72610000
N       -2.11920000      -0.86070000       1.01000000
H        1.06640000       1.92090000       0.19730000
H       -0.41720000       2.02390000      -0.76760000
H       -0.51660000       1.92580000       0.99400000
H        0.57150000      -0.29790000      -0.84390000
H        0.48980000      -0.40320000       0.90290000
H       -0.92370000      -0.17220000      -2.79550000
H       -4.34530000      -1.52300000      -1.10960000
H       -1.82260000      -0.83660000       1.97230000
