18
Properties=species:S:1:pos:R:3 gdb_113907=T pbc="F F F"
C       -0.15490000       1.03690000       0.04220000
O       -0.53580000      -0.16490000      -0.59750000
C        0.46540000      -0.69770000      -1.39420000
C        1.52530000      -1.57890000      -0.75190000
C        0.43950000      -2.18140000      -1.59630000
O       -0.51890000      -2.92730000      -0.88780000
C       -1.69100000      -3.12820000      -1.55740000
N       -2.56230000      -3.80580000      -0.75080000
O       -1.89530000      -2.80330000      -2.70080000
H        0.70700000       0.88670000       0.70810000
H        0.10280000       1.81900000      -0.68760000
H       -1.01130000       1.37170000       0.63200000
H        0.75600000      -0.07760000      -2.24360000
H        2.54220000      -1.57030000      -1.12760000
H        1.42310000      -1.73280000       0.31680000
H        0.66060000      -2.57470000      -2.58160000
H       -2.39850000      -3.79460000       0.24190000
H       -3.51750000      -3.82670000      -1.06480000
