18
Properties=species:S:1:pos:R:3 gdb_113342=T pbc="F F F"
N       -0.17160000       1.39530000      -0.61890000
C       -0.00020000       0.16980000       0.15480000
C       -1.33510000      -0.55470000       0.22760000
N       -1.73980000      -1.28070000      -1.00210000
C       -1.50160000      -2.04740000       0.22850000
C       -0.36970000      -3.05050000       0.18240000
O       -0.77440000      -4.21480000      -0.51510000
C       -2.37840000       0.17900000       0.91810000
N       -3.22450000       0.73590000       1.47610000
H        0.67350000       1.95510000      -0.58680000
H       -0.33740000       1.15870000      -1.59250000
H        0.74990000      -0.52360000      -0.25000000
H        0.31310000       0.43820000       1.16970000
H       -2.73510000      -1.16230000      -1.17290000
H       -2.38070000      -2.41320000       0.75510000
H        0.52630000      -2.60540000      -0.26820000
H       -0.11500000      -3.37230000       1.19720000
H       -0.98220000      -3.94210000      -1.41620000
