18
Properties=species:S:1:pos:R:3 gdb_106853=T pbc="F F F"
C       -0.40930000       1.32940000      -0.03010000
N        0.18780000      -0.00190000       0.07960000
C        0.82760000      -0.48980000      -1.07490000
C        0.00870000      -0.98730000      -2.23570000
C        0.96910000      -1.94750000      -1.58310000
N        2.31870000      -1.67290000      -2.13340000
C        2.29500000      -0.30310000      -1.51270000
C        0.61000000      -3.18450000      -0.98290000
N        0.35150000      -4.19330000      -0.47530000
H        0.31100000       2.13450000      -0.24630000
H       -1.15700000       1.32370000      -0.82880000
H       -0.92000000       1.56880000       0.90650000
H        0.78700000      -0.06830000       0.89410000
H       -1.03550000      -1.14660000      -1.99140000
H        0.22530000      -0.68330000      -3.25570000
H        3.01360000      -2.25800000      -1.67990000
H        2.51570000       0.50500000      -2.21810000
H        2.96200000      -0.21970000      -0.64740000
