16
Properties=species:S:1:pos:R:3 gdb_10040=T pbc="F F F"
C        0.11220000       1.49650000      -0.10720000
N       -0.09830000       0.06460000       0.08340000
C        0.64260000      -0.50190000       1.20060000
C        0.17630000      -1.95850000       1.46630000
C       -1.22600000      -2.00780000       1.85820000
C       -2.38640000      -2.01340000       2.17230000
C        2.08650000      -0.50010000       0.90300000
N        3.22250000      -0.50250000       0.69380000
H        1.15090000       1.68000000      -0.39940000
H       -0.53010000       1.84470000      -0.91980000
H       -0.10030000       2.10320000       0.79010000
H       -1.08260000      -0.12540000       0.24450000
H        0.51490000       0.07060000       2.13870000
H        0.33660000      -2.54240000       0.55360000
H        0.80460000      -2.39610000       2.24890000
H       -3.40910000      -2.04230000       2.45790000
