18
Properties=species:S:1:pos:R:3 gdb_30249=T pbc="F F F"
C       -0.05060000       1.53270000      -0.00540000
C        0.04000000       0.03690000       0.01730000
C        0.24640000      -0.83370000      -1.03370000
C        0.26030000      -1.27190000      -2.48360000
O        1.38860000      -0.86150000      -3.21660000
C        0.28330000      -2.74980000      -1.89210000
N        0.27730000      -2.11520000      -0.56610000
C        0.06680000      -2.14820000       0.77850000
C       -0.05330000      -0.81870000       1.16430000
H        0.81460000       2.00300000       0.47760000
H       -0.09320000       1.90900000      -1.03140000
H       -0.94370000       1.89060000       0.51910000
H       -0.66600000      -1.06000000      -3.03480000
H        1.24170000      -1.07580000      -4.14360000
H       -0.59940000      -3.36300000      -2.10090000
H        1.19880000      -3.30380000      -2.11740000
H        0.05260000      -3.05830000       1.35580000
H       -0.17960000      -0.48210000       2.18400000
