19
Properties=species:S:1:pos:R:3 gdb_92774=T pbc="F F F"
O       -0.28220000       1.42800000       0.04710000
C       -0.07570000       0.02220000       0.09260000
C        0.42960000      -0.45000000       1.47950000
N       -0.75730000      -0.85850000       2.24370000
C       -1.71570000      -1.03740000       1.41540000
C       -1.39490000      -0.76480000      -0.04170000
N       -2.95520000      -1.55610000       1.76900000
C       -4.13630000      -0.69780000       1.83420000
C       -3.52190000      -1.26890000       3.07220000
H       -0.79280000       1.67390000       0.82680000
H        0.62910000      -0.18920000      -0.71440000
H        1.11710000      -1.30230000       1.39300000
H        0.97170000       0.35050000       1.99410000
H       -2.16380000      -0.19610000      -0.57180000
H       -1.26030000      -1.71500000      -0.57280000
H       -3.99900000       0.36630000       1.65590000
H       -5.04910000      -1.11970000       1.42410000
H       -3.99550000      -2.10910000       3.57060000
H       -2.95500000      -0.60180000       3.71460000
