20
Properties=species:S:1:pos:R:3 gdb_90339=T pbc="F F F"
C       -0.26930000       1.46530000      -0.17980000
C        0.04130000      -0.00510000      -0.03010000
O        1.31940000      -0.35130000      -0.74040000
C        1.90440000      -0.48550000       0.48580000
N        3.03580000      -0.21650000       0.97600000
C        2.72520000      -0.07110000       2.43360000
C        1.18360000       0.25360000       2.52520000
C        0.66550000      -0.54440000       1.31230000
C        0.14280000      -1.93790000       1.66760000
H        0.55550000       2.08420000       0.18370000
H       -0.44290000       1.71250000      -1.23090000
H       -1.17240000       1.71620000       0.38640000
H       -0.75990000      -0.63730000      -0.42070000
H        2.98430000      -0.98300000       2.98710000
H        3.33690000       0.73810000       2.84060000
H        0.73470000      -0.04430000       3.47660000
H        1.03650000       1.33100000       2.40170000
H       -0.85870000      -1.87050000       2.10700000
H        0.08370000      -2.58050000       0.78380000
H        0.79480000      -2.42910000       2.39620000
