19
Properties=species:S:1:pos:R:3 gdb_114724=T pbc="F F F"
O        0.31400000       1.14340000       0.38270000
C        0.07300000      -0.23760000       0.26180000
C       -1.40580000      -0.53830000      -0.05220000
C       -1.77040000      -2.01570000      -0.33700000
C       -2.82380000      -2.42100000       0.70090000
C       -2.37900000      -2.39950000       2.12450000
C       -3.16120000      -1.21410000       1.55830000
C       -2.30550000      -0.08250000       1.10500000
O       -2.29990000       1.04110000       1.56500000
H       -0.40000000       1.50570000       0.92830000
H        0.70230000      -0.60720000      -0.55600000
H        0.37410000      -0.78800000       1.17140000
H       -1.67200000       0.09360000      -0.90740000
H       -2.17780000      -2.11950000      -1.34590000
H       -0.89260000      -2.67010000      -0.28140000
H       -3.60070000      -3.11700000       0.40740000
H       -2.91660000      -3.00490000       2.84540000
H       -1.32400000      -2.27450000       2.34840000
H       -4.13990000      -1.00020000       1.96820000
