15
Properties=species:S:1:pos:R:3 gdb_13067=T pbc="F F F"
C        0.12580000       1.55980000      -0.25290000
C        0.07440000       0.11720000      -0.07240000
C        0.03060000      -1.07590000       0.08440000
C       -0.05500000      -2.51090000       0.24940000
N       -0.07750000      -3.04120000       1.64990000
C       -1.22250000      -3.94760000       1.38290000
C       -1.43200000      -3.22110000       0.04790000
O       -2.28220000      -3.18490000      -0.78270000
H        1.02730000       1.86480000      -0.79540000
H       -0.74150000       1.91750000      -0.81870000
H        0.12680000       2.07650000       0.71310000
H        0.68410000      -3.01420000      -0.39590000
H        0.77830000      -3.51440000       1.91460000
H       -0.97840000      -5.00900000       1.23140000
H       -2.04070000      -3.87570000       2.10730000
