16
Properties=species:S:1:pos:R:3 gdb_87313=T pbc="F F F"
O       -0.87250000       1.18680000       0.71250000
C       -0.42450000      -0.08510000       0.40900000
C       -0.89910000      -1.32690000       1.09140000
C       -1.30030000      -1.08390000      -0.36920000
C       -2.75030000      -0.72090000      -0.73790000
C       -3.52930000      -0.11620000       0.33720000
C       -4.17460000       0.37110000       1.22850000
C       -0.64410000      -1.87090000      -1.37680000
N       -0.11340000      -2.49600000      -2.19410000
H       -1.76290000       1.13480000       1.08370000
H        0.61660000      -0.05060000       0.10730000
H       -0.18880000      -2.11940000       1.29620000
H       -1.70300000      -1.23270000       1.81370000
H       -2.73320000      -0.04340000      -1.60010000
H       -3.26340000      -1.63130000      -1.06960000
H       -4.76920000       0.79550000       2.00050000
