15
Properties=species:S:1:pos:R:3 gdb_61151=T pbc="F F F"
O        0.11850000       1.52420000      -0.08320000
C        0.03360000       0.13440000      -0.00840000
C        0.65720000      -0.53670000      -1.26240000
C       -0.05970000      -0.19510000      -2.48160000
C       -0.66600000       0.07670000      -3.48230000
C        0.72730000      -0.35420000       1.26620000
O        1.29070000       0.44030000       1.99320000
C        0.66650000      -1.76650000       1.55950000
C        0.59440000      -2.94600000       1.78860000
H        0.64630000       1.79830000       0.68430000
H       -1.01940000      -0.18500000       0.05360000
H        1.70260000      -0.21280000      -1.33520000
H        0.66080000      -1.62450000      -1.12430000
H       -1.19460000       0.32400000      -4.36920000
H        0.53890000      -3.98610000       2.00410000
