18
Properties=species:S:1:pos:R:3 gdb_74156=T pbc="F F F"
N        0.08370000       1.34190000      -0.09730000
C        0.00110000      -0.01650000      -0.03190000
C       -1.12880000      -0.77350000      -0.02650000
C       -0.80110000      -2.18990000      -0.00870000
O       -1.55840000      -3.13950000       0.00360000
C        0.73990000      -2.30270000      -0.00050000
C        1.23290000      -0.86180000      -0.02230000
C        2.46850000      -0.43190000      -0.78730000
C        2.48070000      -0.41660000       0.71490000
H        0.93770000       1.79340000       0.18550000
H       -0.75210000       1.87670000       0.07440000
H       -2.14500000      -0.40110000      -0.03280000
H        1.05940000      -2.85060000       0.89140000
H        1.06760000      -2.87800000      -0.87190000
H        3.02660000      -1.20870000      -1.29860000
H        2.43620000       0.51500000      -1.31630000
H        2.47360000       0.54000000       1.22940000
H        3.04200000      -1.18520000       1.23500000
