16
Properties=species:S:1:pos:R:3 gdb_24657=T pbc="F F F"
C        1.09290000       0.86700000      -0.14740000
N        0.03170000       0.18950000      -0.89410000
C       -0.25590000       0.66840000       0.46740000
C       -0.50200000      -0.35530000       1.51770000
C       -0.20750000      -1.71220000       1.32850000
N       -0.40300000      -2.62200000       2.28160000
C       -0.90520000      -2.17150000       3.43450000
C       -1.21560000      -0.82870000       3.62270000
N       -1.01830000       0.08460000       2.67070000
H        1.91560000       0.22710000       0.15940000
H        1.37730000       1.87890000      -0.42370000
H       -0.38300000       0.81320000      -1.58020000
H       -0.86110000       1.56210000       0.59450000
H        0.18020000      -2.05570000       0.37480000
H       -1.07000000      -2.90080000       4.22330000
H       -1.63770000      -0.47870000       4.56160000
