11
Properties=species:S:1:pos:R:3 gdb_5181=T pbc="F F F"
O        0.09860000      -0.01510000       0.14730000
C        0.26850000       1.12150000      -0.14000000
O        0.44760000       2.09110000       0.82840000
C        0.72700000       3.34070000       0.40860000
C        1.73910000       3.91790000      -0.28110000
N        1.47530000       5.27990000      -0.38370000
C        0.35530000       5.43900000       0.23760000
O       -0.17710000       4.29830000       0.74940000
H        0.31550000       1.55150000      -1.15480000
H        2.62820000       3.46540000      -0.68790000
H       -0.20100000       6.34710000       0.40640000
