19
Properties=species:S:1:pos:R:3 gdb_9782=T pbc="F F F"
C        0.15430000       1.41200000       0.28820000
C       -0.04990000      -0.08300000      -0.03050000
C       -1.48330000      -0.39590000      -0.12960000
N       -2.61070000      -0.63460000      -0.21980000
C        0.69110000      -0.54930000      -1.29110000
C        0.27430000       0.11280000      -2.59090000
C        2.14240000      -0.92340000      -1.10600000
C        1.10600000      -1.99910000      -1.33390000
H        1.22400000       1.62560000       0.36190000
H       -0.27430000       2.04620000      -0.49110000
H       -0.32160000       1.67430000       1.23620000
H        0.33670000      -0.66560000       0.81520000
H        0.47630000       1.18920000      -2.58470000
H        0.82390000      -0.31870000      -3.43230000
H       -0.79490000      -0.03050000      -2.78090000
H        2.83040000      -0.69240000      -1.91200000
H        2.57850000      -0.83850000      -0.11570000
H        0.84060000      -2.63700000      -0.49730000
H        1.08890000      -2.50230000      -2.29420000
