17
Properties=species:S:1:pos:R:3 gdb_64935=T pbc="F F F"
C       -0.39410000       1.06820000      -1.13130000
C       -0.06210000      -0.02130000      -0.13270000
C        1.32320000      -0.52050000      -0.00350000
O        0.79140000       0.38440000       0.95740000
C       -1.15520000      -0.89420000       0.22880000
C       -2.09900000      -1.59000000       0.50740000
C       -3.20130000      -2.45190000       0.83550000
C       -4.04730000      -2.20660000       2.02160000
O       -4.52700000      -1.90840000       0.71810000
H        0.49110000       1.67830000      -1.32630000
H       -0.74490000       0.63340000      -2.07190000
H       -1.18540000       1.71360000      -0.73960000
H        1.49670000      -1.53520000       0.35040000
H        2.09010000      -0.11460000      -0.66290000
H       -3.11690000      -3.47850000       0.48050000
H       -4.51760000      -3.05440000       2.51820000
H       -3.82990000      -1.34680000       2.65190000
