19
Properties=species:S:1:pos:R:3 gdb_40082=T pbc="F F F"
C       -0.08420000       1.47350000      -0.15080000
C        1.27550000       0.84670000       0.05050000
C        0.03880000      -0.01330000      -0.02200000
C       -0.46340000      -0.97780000       1.09300000
C       -0.25250000      -2.15180000       0.06230000
O       -1.25060000      -3.08770000      -0.28740000
C       -1.56000000      -2.87180000      -1.67990000
C       -1.06970000      -1.46290000      -1.99460000
C       -0.26850000      -1.09870000      -1.00050000
H       -0.52480000       2.01570000       0.67960000
H       -0.32200000       1.88190000      -1.12750000
H        1.96110000       0.82640000      -0.78950000
H        1.75270000       0.96010000       1.01860000
H        0.11530000      -1.01900000       2.01930000
H       -1.52450000      -0.83280000       1.31000000
H        0.71100000      -2.65180000       0.23690000
H       -1.08570000      -3.65420000      -2.29490000
H       -2.64560000      -2.96060000      -1.81460000
H       -1.46630000      -0.86790000      -2.80720000
