17
Properties=species:S:1:pos:R:3 gdb_68912=T pbc="F F F"
O       -0.21990000       1.32420000      -0.14550000
C       -0.02480000      -0.04920000       0.03180000
C       -0.47770000      -0.69710000       1.32730000
C       -1.28580000      -0.88180000       0.05270000
O       -2.52430000      -0.26610000      -0.07090000
C       -1.05830000      -2.14820000      -0.74040000
C        0.45190000      -2.16640000      -1.03120000
O        1.08170000      -3.12320000      -1.39450000
C        1.03460000      -0.76200000      -0.78080000
H        0.31040000       1.80380000       0.49930000
H        0.09670000      -1.52010000       1.74410000
H       -0.92770000      -0.03420000       2.05870000
H       -2.34970000       0.68030000      -0.17010000
H       -1.36500000      -3.07430000      -0.24660000
H       -1.59860000      -2.08630000      -1.69360000
H        1.15750000      -0.25940000      -1.74880000
H        2.02280000      -0.83740000      -0.31690000
