21
Properties=species:S:1:pos:R:3 gdb_104313=T pbc="F F F"
C        0.05770000       1.57240000      -0.01920000
C       -0.00220000       0.03990000      -0.00890000
C       -1.42360000      -0.54160000       0.01200000
O       -2.11300000      -0.16810000       1.20870000
C       -2.26220000      -0.18780000      -1.24790000
O       -3.16850000      -1.26160000      -1.47130000
C       -2.60930000      -2.42090000      -0.90980000
C       -1.20000000      -2.79100000      -1.29370000
C       -1.48230000      -2.06200000       0.00920000
H        1.09500000       1.91940000      -0.02230000
H       -0.43200000       1.99680000      -0.90260000
H       -0.41770000       2.00060000       0.87060000
H        0.52710000      -0.35490000      -0.88360000
H        0.52350000      -0.33820000       0.87500000
H       -2.21780000       0.78860000       1.20900000
H       -2.84800000       0.72650000      -1.11290000
H       -1.60810000      -0.04530000      -2.12110000
H       -3.35680000      -3.17600000      -0.70060000
H       -0.92100000      -3.83600000      -1.21150000
H       -0.71930000      -2.26760000      -2.11330000
H       -1.31490000      -2.55430000       0.95910000
