17
Properties=species:S:1:pos:R:3 gdb_19982=T pbc="F F F"
C        0.18830000      -0.74070000      -1.10670000
C        0.20140000       0.32830000      -0.55160000
C        0.13460000       1.60960000       0.08460000
C        0.56900000       1.80490000       1.53690000
C        1.34330000       2.49440000       0.46520000
N        2.73750000       2.24960000       0.26070000
C        3.29270000       0.91090000       0.11740000
C        3.23140000       1.83890000      -1.04890000
H        0.19750000      -1.68230000      -1.59720000
H       -0.73360000       2.19030000      -0.21750000
H       -0.07400000       2.37900000       2.19470000
H        1.04380000       0.94830000       2.00270000
H        1.12500000       3.55070000       0.33030000
H        4.23200000       0.75280000       0.64150000
H        2.62310000       0.05730000       0.10120000
H        2.49840000       1.60460000      -1.81720000
H        4.12360000       2.35180000      -1.39780000
