23
Properties=species:S:1:pos:R:3 gdb_118171=T pbc="F F F"
C       -0.02640000       1.50470000       0.01900000
C        0.02820000      -0.01060000       0.12490000
O       -1.28910000      -0.50890000       0.00620000
C       -1.40500000      -1.92230000       0.01040000
C       -1.41520000      -2.48180000       1.43570000
C       -2.71010000      -2.25820000      -0.73450000
C       -2.67650000      -1.91190000      -2.15050000
C       -2.63570000      -1.63960000      -3.32250000
C       -2.59450000      -1.30420000      -4.73890000
H        0.97900000       1.92970000       0.09480000
H       -0.46220000       1.80340000      -0.93850000
H       -0.64200000       1.92350000       0.82020000
H        0.66290000      -0.43040000      -0.67310000
H        0.48010000      -0.30640000       1.08570000
H       -0.56360000      -2.36030000      -0.54980000
H       -0.50070000      -2.21320000       1.97180000
H       -2.26770000      -2.08210000       1.99450000
H       -1.48640000      -3.57430000       1.42560000
H       -2.91690000      -3.32930000      -0.61580000
H       -3.52710000      -1.72360000      -0.23280000
H       -3.41920000      -1.77630000      -5.28480000
H       -2.67180000      -0.22250000      -4.89640000
H       -1.65970000      -1.63890000      -5.20260000
