12
Properties=species:S:1:pos:R:3 gdb_3802=T pbc="F F F"
C        0.02350000       1.39670000       0.00760000
O        0.02160000      -0.02190000       0.00290000
C       -1.19950000      -0.59030000       0.01020000
C       -2.45530000      -0.05940000       0.02180000
O       -3.36400000      -1.05960000       0.02530000
N       -2.70720000      -2.27700000       0.01590000
C       -1.42880000      -1.99560000       0.00700000
H        1.06840000       1.70870000       0.00060000
H       -0.48390000       1.79410000      -0.88150000
H       -0.47000000       1.78810000       0.90710000
H       -2.85000000       0.94200000       0.02840000
H       -0.69710000      -2.79000000      -0.00150000
