18
Properties=species:S:1:pos:R:3 gdb_114579=T pbc="F F F"
C       -0.18860000       1.35330000       0.05930000
O        0.38280000       0.07940000      -0.14050000
C        0.79810000      -0.52960000       1.04100000
C       -0.26500000      -1.18600000       2.00670000
C        0.48050000      -2.51030000       1.83510000
N        0.38490000      -2.84160000       0.40700000
C        1.45600000      -1.90180000       0.85890000
C        2.83250000      -2.17060000       0.63620000
C        4.00300000      -2.37760000       0.44580000
H        0.51760000       2.04370000       0.54740000
H       -0.44730000       1.74940000      -0.92510000
H       -1.10140000       1.30400000       0.67180000
H        1.46700000       0.13160000       1.61250000
H       -0.23620000      -0.77410000       3.01680000
H       -1.28920000      -1.20250000       1.62860000
H        0.67920000      -3.26750000       2.58280000
H        0.84590000      -3.74050000       0.26390000
H        5.03490000      -2.56140000       0.27650000
