16
Properties=species:S:1:pos:R:3 gdb_32027=T pbc="F F F"
C        0.01560000       1.47640000       0.08430000
N       -0.01210000       0.04360000      -0.13700000
C       -1.14490000      -0.71830000      -0.04270000
C       -1.14300000      -2.10100000       0.01690000
N       -2.29150000      -2.80860000       0.06790000
C       -3.44810000      -2.20090000       0.06470000
C       -3.60590000      -0.75970000       0.01100000
O       -4.63690000      -0.10980000       0.00700000
N       -2.35540000      -0.09520000      -0.03700000
H        1.04860000       1.81830000       0.00730000
H       -0.55710000       2.00640000      -0.68600000
H       -0.37060000       1.76850000       1.07150000
H        0.84300000      -0.45660000       0.04010000
H       -0.20700000      -2.64820000       0.01910000
H       -4.35660000      -2.79350000       0.10710000
H       -2.42630000       0.91210000      -0.07670000
