18
Properties=species:S:1:pos:R:3 gdb_14546=T pbc="F F F"
C       -0.05780000       1.55430000       0.08450000
C        0.04030000       0.04500000       0.09060000
C       -1.17000000      -0.65140000      -0.42470000
O       -2.16580000      -0.09850000      -0.82330000
C        1.30200000      -0.75440000      -0.22840000
C        2.55870000      -0.03710000       0.28220000
C        1.96280000      -0.07010000       1.72660000
C        0.72310000      -0.78630000       1.17470000
H        0.84500000       2.03430000       0.46560000
H       -0.23590000       1.91770000      -0.93170000
H       -0.90360000       1.88100000       0.69650000
H       -1.09580000      -1.76520000      -0.41930000
H        1.29010000      -1.52350000      -0.99240000
H        3.45020000      -0.66140000       0.19400000
H        2.77720000       0.94130000      -0.15430000
H        2.54300000      -0.71160000       2.39310000
H        1.79450000       0.88690000       2.22790000
H        0.18850000      -1.58420000       1.67750000
