20
Properties=species:S:1:pos:R:3 gdb_115425=T pbc="F F F"
C       -0.71650000       0.69140000      -0.18480000
O        0.10750000      -0.41490000       0.10140000
C        0.97080000      -0.23500000       1.21600000
C        0.23770000      -0.43960000       2.56360000
C        0.34290000      -1.95550000       2.88850000
C        1.15740000      -2.57170000       1.71160000
C        1.98220000      -1.38140000       1.16910000
C        1.96070000      -3.72500000       2.09910000
N        2.60270000      -4.63300000       2.41550000
H       -0.12150000       1.59700000      -0.38040000
H       -1.28810000       0.44340000      -1.08230000
H       -1.42380000       0.91590000       0.62740000
H        1.45360000       0.75080000       1.15120000
H        0.71960000       0.15630000       3.34430000
H       -0.79860000      -0.10010000       2.49990000
H        0.87340000      -2.11560000       3.83030000
H       -0.63160000      -2.43820000       2.98330000
H        0.46720000      -2.88810000       0.92330000
H        2.36880000      -1.54930000       0.16270000
H        2.82160000      -1.16960000       1.83910000
