20
Properties=species:S:1:pos:R:3 gdb_93426=T pbc="F F F"
C       -0.07670000       1.50160000      -0.14810000
N       -0.01940000       0.05240000      -0.02370000
C       -1.33890000      -0.56670000       0.08800000
C       -1.40960000      -1.91180000      -0.63540000
C       -0.64720000      -3.08640000      -0.03960000
O       -1.01610000      -4.22180000      -0.28120000
C        0.53600000      -2.89880000       0.83090000
C        1.14560000      -1.78800000       1.26410000
C        0.90030000      -0.33050000       1.02740000
H        0.92980000       1.89650000      -0.32130000
H       -0.69650000       1.77650000      -1.00610000
H       -0.48590000       2.00700000       0.74770000
H       -1.65860000      -0.66860000       1.14080000
H       -2.06380000       0.10120000      -0.38670000
H       -2.44840000      -2.24320000      -0.73180000
H       -1.02700000      -1.76820000      -1.65380000
H        0.92410000      -3.85590000       1.17020000
H        1.98170000      -1.93920000       1.94680000
H        1.87460000       0.12870000       0.80750000
H        0.60420000       0.09860000       2.01330000
