23
Properties=species:S:1:pos:R:3 gdb_101120=T pbc="F F F"
C        0.21100000       1.56250000      -0.12110000
C        0.11850000       0.04040000       0.02110000
C        0.60350000      -0.50410000       1.38170000
C       -0.25010000      -0.01650000       2.56260000
C        0.66340000      -2.00620000       1.34080000
C       -0.48860000      -3.03730000       1.34190000
C        0.49180000      -4.06460000       2.01010000
C        1.58060000      -2.98650000       1.95430000
O        1.72200000      -2.60840000       0.57660000
H        1.23460000       1.91330000       0.05310000
H       -0.07920000       1.87700000      -1.12840000
H       -0.44350000       2.08280000       0.58490000
H       -0.91840000      -0.28250000      -0.14460000
H        0.71820000      -0.43320000      -0.76430000
H        1.63650000      -0.16130000       1.53130000
H        0.09730000      -0.45160000       3.50520000
H       -0.20350000       1.07090000       2.66230000
H       -1.30230000      -0.29300000       2.43200000
H       -1.32050000      -2.76900000       1.99700000
H       -0.87220000      -3.29610000       0.35230000
H        0.19330000      -4.32640000       3.02820000
H        0.71320000      -4.97490000       1.44810000
H        2.44810000      -2.84980000       2.59110000
