18
Properties=species:S:1:pos:R:3 gdb_41089=T pbc="F F F"
C       -0.03690000       1.52540000       0.08900000
O        1.44390000       1.56110000      -0.04840000
C        1.30810000       0.30780000      -0.82570000
C        1.62340000      -1.20150000      -0.66770000
C        1.81140000      -1.38040000       0.83690000
C        0.38380000      -0.92010000       1.16710000
C       -0.43890000      -1.98900000       0.43480000
N       -0.00430000      -1.38160000      -0.86780000
C        0.08650000      -0.00730000      -0.10350000
H       -0.35960000       1.89380000       1.06630000
H       -0.51480000       2.08050000      -0.72510000
H        1.14260000       0.55940000      -1.87810000
H        2.22880000      -1.75220000      -1.38590000
H        2.01550000      -2.40620000       1.15430000
H        2.59300000      -0.72110000       1.22160000
H        0.15870000      -0.58820000       2.18170000
H       -0.17320000      -3.04180000       0.58020000
H       -1.52200000      -1.86220000       0.51750000
