16
Properties=species:S:1:pos:R:3 gdb_13013=T pbc="F F F"
O        0.14670000       1.38820000      -0.25420000
C        0.05270000      -0.01400000      -0.03000000
C        0.66360000      -0.50390000       1.27080000
C       -0.17370000      -1.29450000       1.94660000
C       -1.49700000      -1.41060000       1.25870000
C       -2.26630000      -0.09300000       1.16120000
C       -1.37950000      -0.55920000       0.02860000
O       -1.97040000      -0.97410000      -1.16220000
H       -0.28000000       1.82620000       0.49090000
H        0.55730000      -0.46000000      -0.89670000
H        1.66390000      -0.21780000       1.57420000
H        0.03620000      -1.77220000       2.89730000
H       -2.05550000      -2.33900000       1.25670000
H       -3.33080000      -0.16570000       0.96500000
H       -1.96580000       0.72260000       1.81250000
H       -2.13430000      -0.18560000      -1.69270000
