21
Properties=species:S:1:pos:R:3 gdb_89458=T pbc="F F F"
C       -0.33410000       1.48950000       0.14930000
C       -0.02950000       0.01440000       0.02640000
C        1.13020000      -0.43280000      -0.88060000
O        1.67010000      -1.30340000       0.13770000
C        0.68430000      -0.87400000       1.11060000
C        1.28230000      -0.42640000       2.41510000
C       -0.51010000      -1.86510000       1.10610000
O       -1.16640000      -1.89470000       2.35800000
C       -1.21440000      -0.99350000       0.01710000
H        0.57590000       2.07560000       0.31760000
H       -0.80740000       1.86800000      -0.76530000
H       -1.01990000       1.68620000       0.98010000
H        0.86230000      -0.97520000      -1.79690000
H        1.83930000       0.36650000      -1.13670000
H        1.96000000       0.41900000       2.26270000
H        0.49740000      -0.14010000       3.11910000
H        1.85560000      -1.24620000       2.86160000
H       -0.20810000      -2.86870000       0.78020000
H       -1.97080000      -2.41470000       2.26220000
H       -2.13630000      -0.55740000       0.41210000
H       -1.42850000      -1.47600000      -0.94110000
