23
Properties=species:S:1:pos:R:3 gdb_118708=T pbc="F F F"
C       -2.54400000       1.02090000      -1.38670000
O       -2.31810000      -0.34880000      -1.16470000
C       -1.46380000      -0.59660000      -0.06110000
C       -1.21420000      -2.10520000       0.01780000
C       -0.31620000      -2.47270000      -1.17060000
C       -0.92150000      -2.72580000       1.43720000
C       -2.41420000      -2.47720000       1.81430000
C       -2.43390000      -3.04210000       0.36450000
C       -1.40860000      -4.09770000       0.88270000
H       -3.21120000       1.10920000      -2.24800000
H       -3.02040000       1.50430000      -0.51840000
H       -1.60850000       1.56110000      -1.60490000
H       -0.49940000      -0.07900000      -0.20870000
H       -1.90680000      -0.17610000       0.85060000
H        0.68880000      -2.05680000      -1.03020000
H       -0.20910000      -3.54350000      -1.34170000
H       -0.73120000      -2.03000000      -2.08030000
H       -0.04360000      -2.54500000       2.06190000
H       -2.81780000      -3.14110000       2.58280000
H       -2.75490000      -1.45680000       1.98090000
H       -3.31000000      -3.22300000      -0.25940000
H       -0.78100000      -4.61590000       0.16030000
H       -1.79040000      -4.79790000       1.63010000
