16
Properties=species:S:1:pos:R:3 gdb_41757=T pbc="F F F"
C       -0.06620000       1.48540000      -0.12200000
O        1.11560000       2.15690000       0.33830000
C        2.18610000       1.33030000       0.65820000
O        2.01030000       0.76420000       1.99270000
C        0.96430000      -0.07090000       2.19660000
N        0.04500000      -0.46840000       1.42020000
C        0.04430000      -0.03740000       0.01000000
C        1.32320000      -0.47660000      -0.67330000
C        2.40600000       0.22230000      -0.34050000
H       -0.90320000       1.85590000       0.47890000
H       -0.23610000       1.75580000      -1.17230000
H        3.05430000       1.97790000       0.78040000
H        0.98390000      -0.42030000       3.22830000
H       -0.83420000      -0.48340000      -0.46360000
H        1.33420000      -1.31550000      -1.36050000
H        3.40510000       0.02910000      -0.71280000
