15
Properties=species:S:1:pos:R:3 gdb_33447=T pbc="F F F"
C        0.05660000      -1.18480000      -0.00390000
C        0.05000000       0.01610000       0.01300000
C        0.02690000       1.45240000       0.04490000
C       -1.05460000       2.07820000      -0.68090000
N       -1.90880000       2.60210000      -1.25840000
C        0.44850000       2.26210000       1.29380000
C        1.61740000       1.55810000       1.98840000
N        2.37530000       1.51410000       0.68800000
C        1.31280000       2.30350000       0.06580000
H        0.06770000      -2.24640000      -0.03270000
H       -0.24150000       2.97360000       1.72670000
H        2.08510000       2.20990000       2.73120000
H        1.42770000       0.57280000       2.42260000
H        3.24090000       2.03880000       0.74350000
H        1.48200000       3.05990000      -0.69070000
