18
Properties=species:S:1:pos:R:3 gdb_23074=T pbc="F F F"
O        0.03870000       1.28460000       0.72600000
N        0.06710000      -0.12420000       0.75630000
C       -0.93030000      -0.60720000       0.14340000
C       -2.17720000      -0.04630000      -0.51840000
C       -2.72260000      -1.50310000      -0.62550000
C       -2.43910000      -2.24240000      -1.96010000
O       -2.62470000      -1.58400000      -3.18570000
C       -0.99820000      -2.59010000      -1.47780000
C       -1.34490000      -2.04130000      -0.05290000
H        0.81880000       1.51300000       1.24260000
H       -2.75330000       0.61180000       0.13820000
H       -2.02530000       0.49220000      -1.46040000
H       -3.68300000      -1.68120000      -0.14280000
H       -3.05510000      -3.14420000      -2.02300000
H       -2.02800000      -0.82920000      -3.22000000
H       -0.73940000      -3.65010000      -1.51750000
H       -0.20760000      -2.02780000      -1.98370000
H       -1.24770000      -2.73420000       0.78160000
