21
Properties=species:S:1:pos:R:3 gdb_53285=T pbc="F F F"
C        0.20550000       1.47400000      -0.85230000
C        0.10590000       0.06240000      -0.51400000
C        0.02310000      -1.10380000      -0.22270000
C       -0.03600000      -2.50620000       0.08950000
O       -0.22870000      -2.88280000       1.46860000
C       -1.27420000      -3.17790000       0.54630000
C       -2.59350000      -2.46030000       0.72770000
C       -3.44580000      -2.59590000      -0.54170000
C       -3.32060000      -2.99830000       1.96830000
H        1.18710000       1.71250000      -1.27600000
H       -0.55440000       1.76370000      -1.58640000
H        0.06570000       2.10060000       0.03540000
H        0.70380000      -3.12030000      -0.42490000
H       -1.36170000      -4.24230000       0.30740000
H       -2.36620000      -1.40040000       0.88800000
H       -3.66480000      -3.64790000      -0.76050000
H       -4.40270000      -2.07830000      -0.42250000
H       -2.93550000      -2.16930000      -1.41080000
H       -4.25620000      -2.45570000       2.13720000
H       -3.56840000      -4.06020000       1.85140000
H       -2.69690000      -2.89290000       2.86060000
