21
Properties=species:S:1:pos:R:3 gdb_42111=T pbc="F F F"
C       -0.03310000       1.42700000       0.00370000
C        1.33450000       2.12310000       0.08350000
C        2.19200000       1.64060000       1.21980000
C        3.28850000       0.88670000       1.09250000
C        3.82170000       0.38000000      -0.18460000
C        3.23790000      -0.50500000      -1.00040000
C        1.96850000      -1.28600000      -0.75810000
C        0.61980000      -0.61250000      -1.11550000
O        0.03750000       0.01780000       0.01360000
H       -0.63800000       1.68450000       0.88050000
H       -0.57310000       1.78880000      -0.88710000
H        1.86840000       1.98790000      -0.86180000
H        1.14520000       3.20050000       0.19160000
H        1.89620000       1.96230000       2.21730000
H        3.87790000       0.67070000       1.98370000
H        4.80010000       0.76590000      -0.47430000
H        3.75840000      -0.74220000      -1.92710000
H        2.03700000      -2.21830000      -1.33070000
H        1.88860000      -1.56510000       0.29740000
H        0.73280000       0.08940000      -1.95270000
H       -0.08370000      -1.39190000      -1.43530000
