12
Properties=species:S:1:pos:R:3 gdb_2617=T pbc="F F F"
N       -0.01920000      -1.15720000      -0.00050000
C       -0.01010000      -0.00270000      -0.00840000
C       -0.00510000       1.46120000       0.01250000
N        1.35870000       1.97730000      -0.05770000
C        1.38980000       3.43510000       0.01130000
C        2.76820000       3.92840000      -0.01090000
N        3.85320000       4.32290000      -0.00430000
H       -0.56350000       1.82230000      -0.86060000
H       -0.56710000       1.79240000       0.90490000
H        1.92230000       1.57940000       0.68650000
H        0.86240000       3.84020000      -0.86170000
H        0.89070000       3.85500000       0.90380000
