16
Properties=species:S:1:pos:R:3 gdb_66919=T pbc="F F F"
C       -0.03820000       1.56800000       0.10080000
C        0.06680000       0.07580000       0.09820000
N       -1.19240000      -0.76950000       0.10970000
C       -0.34710000      -1.80520000       0.74960000
C        0.75910000      -0.88870000       1.14920000
C        0.95490000      -1.87340000      -0.05460000
O        1.78020000      -2.96420000      -0.06280000
C        0.91460000      -0.68110000      -0.96030000
O        1.50710000      -0.33240000      -1.94140000
H        0.95400000       2.02250000       0.02730000
H       -0.62290000       1.89490000      -0.76480000
H       -0.52470000       1.93970000       1.00840000
H       -1.79680000      -0.38810000       0.84030000
H       -0.73060000      -2.69720000       1.23070000
H        1.41910000      -0.76280000       1.99640000
H        1.34510000      -3.68140000      -0.53760000
