20
Properties=species:S:1:pos:R:3 gdb_60864=T pbc="F F F"
C        0.88280000       1.18900000       0.13420000
N        0.04360000       0.00100000       0.07290000
C       -0.86500000      -0.22070000       1.06800000
O       -0.99040000       0.44770000       2.07320000
C        0.02100000      -0.77920000      -1.15640000
C       -0.85180000      -0.13690000      -2.23820000
C        1.39830000      -1.24140000      -1.69950000
O        0.90850000      -2.58570000      -1.86670000
C       -0.22560000      -2.30660000      -1.02530000
H        1.93700000       0.93010000      -0.00710000
H        0.59940000       1.92470000      -0.62790000
H        0.74720000       1.63320000       1.12010000
H       -1.49360000      -1.10840000       0.86550000
H       -0.50290000       0.87130000      -2.48210000
H       -0.82330000      -0.73650000      -3.15280000
H       -1.89060000      -0.06620000      -1.90030000
H        1.73970000      -0.80220000      -2.64260000
H        2.20250000      -1.19270000      -0.95340000
H       -0.07950000      -2.69320000      -0.00860000
H       -1.15940000      -2.69860000      -1.44120000
