22
Properties=species:S:1:pos:R:3 gdb_86942=T pbc="F F F"
C       -0.11930000       1.63930000       0.09100000
C        0.04730000       0.12900000       0.01250000
C        1.04090000      -0.46840000      -1.02260000
C        1.38800000      -1.56580000       0.01180000
N        2.74930000      -2.03700000       0.09390000
C        3.09100000      -3.35350000       0.16230000
O        2.31340000      -4.28380000       0.16030000
C        0.80470000      -0.65200000       1.14200000
C        1.84950000       0.14400000       1.91940000
H        0.83970000       2.14870000       0.23070000
H       -0.56580000       2.02660000      -0.83160000
H       -0.77460000       1.92850000       0.92020000
H       -0.93580000      -0.33350000      -0.12850000
H        0.65500000      -0.78910000      -1.99330000
H        1.88870000       0.20520000      -1.19420000
H        0.77050000      -2.45470000      -0.12170000
H        3.49520000      -1.35930000       0.11380000
H        4.19040000      -3.48690000       0.21710000
H        0.15660000      -1.17520000       1.85170000
H        2.53010000       0.70070000       1.26440000
H        1.37390000       0.87240000       2.58350000
H        2.45860000      -0.52260000       2.53850000
