21
Properties=species:S:1:pos:R:3 gdb_76698=T pbc="F F F"
C        0.07020000       1.32190000       0.63720000
C        0.33220000      -0.14840000       0.38960000
C        0.45500000      -0.74920000      -0.97560000
C        0.30840000       0.04800000      -2.25410000
N        1.62320000      -0.66250000      -0.08280000
C        2.71620000       0.25080000      -0.36980000
C        3.87800000      -0.56360000      -0.97580000
C        5.04550000       0.26450000      -1.26410000
N        5.95760000       0.93920000      -1.48460000
H        0.51650000       1.63680000       1.58680000
H        0.46390000       1.97300000      -0.14550000
H       -1.00800000       1.50050000       0.70830000
H       -0.10030000      -0.78380000       1.16310000
H        0.10820000      -1.77670000      -1.08600000
H        0.54810000       1.10700000      -2.14440000
H        0.94620000      -0.36010000      -3.04650000
H       -0.72690000      -0.01750000      -2.60490000
H        2.47090000       1.07640000      -1.05130000
H        3.04990000       0.70070000       0.57120000
H        4.15730000      -1.36410000      -0.28390000
H        3.54830000      -1.04610000      -1.90250000
