14
Properties=species:S:1:pos:R:3 gdb_24794=T pbc="F F F"
N       -0.03570000       1.36630000       0.01070000
C        0.03810000       0.08060000       0.00320000
C        1.24880000      -0.74120000      -0.00770000
C        1.17610000      -2.07890000      -0.01470000
O        0.01810000      -2.78240000      -0.01240000
C       -1.15540000      -2.06660000      -0.00230000
C       -1.18210000      -0.71820000       0.00530000
C       -2.30390000      -2.89880000      -0.00080000
C       -3.28450000      -3.59560000       0.00060000
H        0.90230000       1.77360000       0.00790000
H        2.22420000      -0.26780000      -0.01030000
H        2.02940000      -2.74550000      -0.02280000
H       -2.13470000      -0.20480000       0.01310000
H       -4.15230000      -4.20850000       0.00180000
