21
Properties=species:S:1:pos:R:3 gdb_42882=T pbc="F F F"
O        0.04440000       0.02150000       0.03570000
C       -0.00440000       1.21850000       0.03230000
C       -1.14510000       2.24980000       0.10150000
C       -0.06780000       3.26340000       0.60790000
C        1.06390000       2.32800000       0.07710000
C        1.61770000       2.68800000      -1.31700000
C        0.59220000       3.25930000      -2.31490000
C       -0.70300000       2.44150000      -2.46690000
C       -1.70800000       2.55770000      -1.30230000
H       -1.95830000       2.01650000       0.79390000
H       -0.11450000       4.26890000       0.18650000
H       -0.05900000       3.33780000       1.69750000
H        1.89230000       2.11840000       0.76010000
H        2.42970000       3.41420000      -1.19490000
H        2.07260000       1.78310000      -1.73960000
H        0.33770000       4.29060000      -2.03920000
H        1.08410000       3.32800000      -3.29190000
H       -1.21640000       2.75920000      -3.38160000
H       -0.44540000       1.38500000      -2.61810000
H       -2.53750000       1.86970000      -1.49910000
H       -2.13650000       3.56820000      -1.28710000
