19
Properties=species:S:1:pos:R:3 gdb_38385=T pbc="F F F"
C        0.07660000       1.43720000       0.20880000
C        1.32000000       0.61660000       0.07040000
O        1.66360000      -0.01860000       1.30710000
C        0.42360000      -0.76390000       1.25490000
C       -0.02610000      -0.06450000      -0.00340000
C        0.32160000      -2.22070000       1.51520000
C        1.25060000      -2.60960000       2.67080000
C        0.54400000      -1.56110000       3.59020000
C       -0.38260000      -1.16660000       2.43220000
H       -0.17150000       1.87710000       1.17030000
H       -0.18900000       2.03330000      -0.65910000
H        2.10770000       0.76490000      -0.65810000
H       -0.54620000      -0.52060000      -0.83440000
H       -0.10230000      -2.90160000       0.78440000
H        1.09430000      -3.63370000       3.01490000
H        2.31630000      -2.45460000       2.48210000
H        0.00980000      -2.03270000       4.41730000
H        1.16900000      -0.75520000       3.98440000
H       -1.43280000      -0.91020000       2.52060000
