18
Properties=species:S:1:pos:R:3 gdb_124877=T pbc="F F F"
C       -0.22440000       1.37550000      -0.66910000
C       -0.01070000       0.00100000      -0.06390000
C        1.05810000      -0.86290000      -0.65130000
N        1.23990000      -0.25690000       0.67890000
C       -1.21220000      -0.62910000       0.54370000
C       -1.25500000      -1.38770000       1.69780000
N       -2.54610000      -1.76060000       1.86480000
N       -3.36430000      -1.29650000       0.90220000
C       -2.55670000      -0.60970000       0.09830000
H        0.70350000       1.75750000      -1.10760000
H       -0.97860000       1.34760000      -1.46260000
H       -0.56800000       2.08660000       0.08970000
H        0.93630000      -1.94210000      -0.64720000
H        1.63140000      -0.47040000      -1.48800000
H        1.85370000       0.55150000       0.61050000
H       -0.47140000      -1.66430000       2.38330000
H       -2.93530000      -2.31390000       2.60890000
H       -2.96780000      -0.12340000      -0.77430000
