18
Properties=species:S:1:pos:R:3 gdb_45500=T pbc="F F F"
N       -0.06450000       1.10180000      -0.56370000
C       -0.03150000      -0.03910000      -0.02870000
C       -1.26130000      -0.90340000       0.26840000
C       -0.61810000      -2.22490000       0.51720000
C       -0.79120000      -3.50860000       0.22120000
C        0.48880000      -4.29150000       0.46200000
C        1.57430000      -3.17390000       0.51900000
C        0.78500000      -1.94590000       0.98670000
O        1.11570000      -0.68400000       0.36530000
H        0.87860000       1.48460000      -0.65110000
H       -1.76770000      -0.50170000       1.15630000
H       -1.97080000      -0.87280000      -0.55900000
H       -1.69340000      -3.95890000      -0.17660000
H        0.44940000      -4.85840000       1.40230000
H        0.68410000      -5.02270000      -0.32930000
H        2.42260000      -3.42390000       1.16010000
H        1.95200000      -2.97460000      -0.48860000
H        0.85670000      -1.80020000       2.07460000
