13
Properties=species:S:1:pos:R:3 gdb_1166=T pbc="F F F"
C        0.27630000       1.51360000       0.54370000
C        0.09130000       0.08040000       0.00820000
O        0.58950000      -0.88160000       0.89390000
C       -1.39710000      -0.16600000      -0.23870000
O       -1.98190000      -1.05890000       0.32120000
C        0.80000000      -0.06310000      -1.35120000
O        0.70100000       0.73400000      -2.24550000
H        1.32790000       1.66260000       0.80020000
H       -0.00760000       2.24330000      -0.21800000
H       -0.32450000       1.66410000       1.44430000
H       -0.16760000      -1.43900000       1.13820000
H       -1.89110000       0.52290000      -0.94880000
H        1.40700000      -0.99080000      -1.42080000
