15
Properties=species:S:1:pos:R:3 gdb_68504=T pbc="F F F"
O        0.71740000       0.98490000       0.61510000
C        0.31650000      -0.26310000       0.24510000
C        0.55250000      -1.58530000       1.03450000
C       -0.27520000      -2.05420000      -0.22150000
C       -1.19220000      -0.80680000      -0.02780000
C       -2.16940000      -0.74310000       1.11010000
O       -2.32370000      -1.58150000       1.96390000
C        0.63470000      -1.09780000      -1.00600000
O        1.25110000      -1.00530000      -2.02220000
H        0.95940000       1.47960000      -0.17740000
H        1.58620000      -1.92860000       1.09830000
H        0.02560000      -1.67690000       1.98010000
H       -0.59810000      -3.06080000      -0.46010000
H       -1.65460000      -0.38970000      -0.92860000
H       -2.78300000       0.18570000       1.10580000
