23
Properties=species:S:1:pos:R:3 gdb_95829=T pbc="F F F"
C        0.56940000       1.42680000       0.21740000
C       -0.24400000       0.19580000      -0.18870000
C        0.33160000      -0.48930000      -1.44110000
C       -0.20810000      -1.90410000      -1.71110000
C        0.51310000      -3.00450000      -0.91800000
C        0.30360000      -2.97120000       0.59420000
O        1.17240000      -3.96110000       1.13770000
C        0.58970000      -1.60070000       1.22760000
O       -0.43810000      -0.67780000       0.92470000
H        1.59380000       1.15100000       0.49120000
H        0.62710000       2.14390000      -0.60850000
H        0.10670000       1.92170000       1.07540000
H       -1.26620000       0.51820000      -0.42500000
H        0.10500000       0.16540000      -2.29080000
H        1.42740000      -0.52720000      -1.38120000
H       -1.28680000      -1.93590000      -1.51180000
H       -0.08640000      -2.12750000      -2.77680000
H        0.20000000      -3.99010000      -1.27940000
H        1.59340000      -2.93710000      -1.10470000
H       -0.74950000      -3.20830000       0.81650000
H        0.98170000      -4.04130000       2.07780000
H        0.60010000      -1.71220000       2.32040000
H        1.58660000      -1.24460000       0.93380000
