22
Properties=species:S:1:pos:R:3 gdb_6274=T pbc="F F F"
C       -0.07900000       1.53450000       0.12350000
C       -0.06600000       0.00400000       0.00130000
C       -1.49960000      -0.54120000      -0.07440000
C        0.74040000      -0.48600000      -1.21570000
C        2.24560000      -0.11640000      -1.23580000
C        3.02940000      -0.71980000      -0.05220000
C        2.84020000      -0.53280000      -2.50600000
C        3.32020000      -0.89680000      -3.54680000
H        0.92280000       1.95000000       0.26940000
H       -0.50240000       1.99430000      -0.77790000
H       -0.69040000       1.85140000       0.97480000
H        0.39280000      -0.40540000       0.91130000
H       -2.01660000      -0.16200000      -0.96410000
H       -1.50890000      -1.63500000      -0.12610000
H       -2.08370000      -0.24080000       0.80160000
H        0.66070000      -1.57820000      -1.28430000
H        0.27840000      -0.08910000      -2.12860000
H        2.33330000       0.97670000      -1.17680000
H        4.09100000      -0.47060000      -0.12610000
H        2.65570000      -0.33800000       0.90190000
H        2.93810000      -1.81060000      -0.04680000
H        3.74790000      -1.20600000      -4.46800000
