21
Properties=species:S:1:pos:R:3 gdb_105673=T pbc="F F F"
C        0.59730000       1.55540000       0.40280000
C       -0.06470000       0.21840000       0.04800000
C        0.52520000      -0.40680000      -1.21060000
O        1.95460000      -0.62930000      -1.11500000
C        1.79550000      -2.06260000      -1.14480000
C        0.29230000      -1.94260000      -1.46540000
C       -0.71620000      -2.71820000      -0.63380000
C        0.20650000       0.39440000      -2.46380000
O       -0.80790000       1.01940000      -2.63790000
H        1.67860000       1.43100000       0.50740000
H        0.41020000       2.30840000      -0.36830000
H        0.20350000       1.94100000       1.34740000
H        0.05190000      -0.47990000       0.88270000
H       -1.13820000       0.35820000      -0.11780000
H        2.42890000      -2.53050000      -1.90650000
H        2.01690000      -2.51680000      -0.16920000
H        0.10400000      -2.12710000      -2.52830000
H       -0.53660000      -2.60700000       0.43920000
H       -1.73950000      -2.39140000      -0.84330000
H       -0.65560000      -3.78580000      -0.87130000
H        0.99840000       0.31440000      -3.24350000
