17
Properties=species:S:1:pos:R:3 gdb_74208=T pbc="F F F"
N        0.05520000       1.41150000       0.29660000
C        0.00440000       0.05320000      -0.00660000
C       -1.19090000      -0.56860000      -0.19270000
C       -1.50930000      -1.99120000      -0.24370000
N       -2.69500000      -2.37980000       0.02670000
O       -0.54190000      -2.91440000      -0.54990000
C        0.54110000      -2.50020000      -1.39110000
C        1.59360000      -1.73960000      -0.64140000
C        1.31730000      -0.59320000      -0.01300000
H        0.85610000       1.91090000      -0.06190000
H       -0.80680000       1.91930000       0.16090000
H       -2.08900000       0.03940000      -0.14070000
H       -2.75250000      -3.39290000      -0.09280000
H        0.94450000      -3.42410000      -1.81050000
H        0.14550000      -1.88910000      -2.21470000
H        2.59840000      -2.14850000      -0.60330000
H        2.10260000      -0.06420000       0.52160000
