16
Properties=species:S:1:pos:R:3 gdb_44262=T pbc="F F F"
O       -0.00290000       0.05640000       0.47400000
C       -0.00790000       1.22870000       0.22020000
N       -1.01470000       2.17000000       0.15390000
C       -0.12220000       3.31970000      -0.06960000
C        1.06280000       2.30740000      -0.09890000
C        1.99360000       2.64500000       1.08380000
C        1.11830000       3.43450000       2.07780000
C        0.08430000       4.15330000       1.20580000
O       -0.46440000       5.19590000       1.44910000
H       -1.97830000       2.13410000       0.45790000
H       -0.36030000       3.92410000      -0.94640000
H        1.57540000       2.16440000      -1.04990000
H        2.42840000       1.74160000       1.51800000
H        2.81910000       3.27210000       0.73230000
H        0.58300000       2.75840000       2.75640000
H        1.66280000       4.14870000       2.69740000
