15
Properties=species:S:1:pos:R:3 gdb_44695=T pbc="F F F"
N        0.01950000       1.08920000       0.54600000
C        0.04160000      -0.07750000       0.06840000
N        0.96770000      -0.93310000      -0.51560000
C        0.06160000      -2.07290000      -0.67070000
C        0.17680000      -3.20660000       0.34090000
C       -0.77290000      -2.83000000       1.48330000
O       -0.93400000      -3.40030000       2.51830000
O       -1.48550000      -1.71060000       1.14950000
C       -1.05580000      -1.14620000      -0.07890000
H        0.93950000       1.53220000       0.52940000
H        1.97590000      -0.90040000      -0.52930000
H       -0.05700000      -2.40690000      -1.70350000
H       -0.14810000      -4.16780000      -0.06860000
H        1.18540000      -3.34390000       0.73690000
H       -1.92380000      -0.89160000      -0.68520000
