12
Properties=species:S:1:pos:R:3 gdb_130002=T pbc="F F F"
N        0.01930000       1.33080000       0.12450000
C       -0.00870000      -0.03630000       0.02410000
N       -1.12800000      -0.75690000       0.04140000
C       -0.65130000      -2.03180000       0.02640000
C        0.71910000      -2.09440000      -0.00960000
N        1.15730000      -0.77450000      -0.03900000
N        1.11060000      -3.37490000      -0.07800000
N        0.09840000      -4.13330000      -0.06400000
O       -1.14960000      -3.24450000      -0.00190000
H        0.72560000       1.80650000      -0.41840000
H       -0.89920000       1.73850000       0.01960000
H        2.08360000      -0.42530000       0.13770000
