19
Properties=species:S:1:pos:R:3 gdb_75034=T pbc="F F F"
C        0.48140000       1.40420000      -0.01730000
C        0.08610000      -0.04200000      -0.14340000
C       -0.06770000      -0.64050000      -1.34070000
C       -0.40360000      -2.04420000      -1.52220000
C        0.06450000      -3.04060000      -0.75150000
C        1.09720000      -2.86320000       0.32500000
C        0.73570000      -1.93830000       1.49590000
O        1.15810000      -2.11800000       2.60790000
C       -0.19640000      -0.77160000       1.14880000
H        1.40650000       1.51010000       0.56400000
H        0.63980000       1.86630000      -0.99490000
H       -0.28510000       1.98060000       0.51630000
H        0.03350000      -0.03480000      -2.23960000
H       -1.05580000      -2.29300000      -2.35720000
H       -0.26700000      -4.05720000      -0.94260000
H        1.42910000      -3.81480000       0.74400000
H        1.98420000      -2.37800000      -0.11450000
H       -0.21020000      -0.09470000       2.00530000
H       -1.18820000      -1.24430000       1.07480000
