19
Properties=species:S:1:pos:R:3 gdb_23219=T pbc="F F F"
C       -0.09690000       1.56930000      -0.01810000
C        0.04960000       0.05140000       0.00430000
N        0.86950000      -0.48730000      -1.13740000
C        1.05690000      -1.92030000      -0.67330000
C        1.90500000      -1.31760000       0.48810000
C        2.28060000      -0.27880000      -0.60760000
C        0.81820000      -0.55240000       1.19040000
N        0.64510000      -0.51830000       2.44570000
O       -0.49520000       0.25070000       2.78190000
H        0.86450000       2.08040000       0.08390000
H       -0.54910000       1.87900000      -0.96440000
H       -0.73240000       1.88960000       0.80920000
H       -0.94790000      -0.39850000      -0.05770000
H        0.13460000      -2.45640000      -0.43350000
H        1.64810000      -2.47990000      -1.40130000
H        2.61900000      -1.87290000       1.09460000
H        3.00700000      -0.65220000      -1.33240000
H        2.53430000       0.74070000      -0.31160000
H       -0.49410000       0.19890000       3.74330000
