23
Properties=species:S:1:pos:R:3 gdb_70745=T pbc="F F F"
C        0.13660000       1.52230000      -0.06180000
C       -0.02870000       0.02090000       0.03230000
C       -1.31380000      -0.53820000      -0.56510000
C       -2.47660000      -0.58550000       0.44520000
C       -2.43710000      -1.77650000       1.41720000
C       -1.23600000      -1.85570000       2.37490000
C        0.12650000      -2.02220000       1.67550000
C        0.65470000      -0.71910000       1.10550000
O        1.17730000      -0.72130000      -0.23000000
H        1.04970000       1.84790000       0.44270000
H        0.19600000       1.83210000      -1.11120000
H       -0.71500000       2.04240000       0.39080000
H       -1.59890000       0.07810000      -1.42610000
H       -1.11580000      -1.54140000      -0.95630000
H       -2.50790000       0.35440000       1.01320000
H       -3.42240000      -0.63260000      -0.10760000
H       -3.35570000      -1.76090000       2.01700000
H       -2.47600000      -2.70560000       0.83090000
H       -1.21170000      -0.96310000       3.01540000
H       -1.39470000      -2.70570000       3.04890000
H        0.86110000      -2.42060000       2.38450000
H        0.04640000      -2.75700000       0.86740000
H        1.25100000      -0.12660000       1.80370000
